
#######################################################################
#
#                 Cambridge Crystallographic Data Centre
#                                CCDC 
#
#######################################################################
#
# If this CIF has been generated from an entry in the Cambridge 
# Structural Database, then it will include bibliographic, chemical, 
# crystal, experimental, refinement or atomic coordinate data resulting 
# from the CCDC's data processing and validation procedures.
#
#######################################################################

data_DADNUU
_chemical_formula_moiety         '(C6 H16 Fe1 Gd2 N1 O24 S4)n'
_symmetry_cell_setting           monoclinic
_symmetry_space_group_name_H-M   'C 2/c'
_symmetry_Int_Tables_number      15
_space_group_name_Hall           '-C 2yc'
loop_
_symmetry_equiv_pos_site_id
_symmetry_equiv_pos_as_xyz
1 x,y,z
2 -x,y,1/2-z
3 1/2+x,1/2+y,z
4 1/2-x,1/2+y,1/2-z
5 -x,-y,-z
6 x,-y,1/2+z
7 1/2-x,1/2-y,-z
8 1/2+x,1/2-y,1/2+z
_cell_length_a                   15.577(3)
_cell_length_b                   16.394(3)
_cell_length_c                   12.593(2)
_cell_angle_alpha                90
_cell_angle_beta                 92.840(3)
_cell_angle_gamma                90
_cell_volume                     3211.92
loop_
_atom_site_label
_atom_site_type_symbol
_atom_site_fract_x
_atom_site_fract_y
_atom_site_fract_z
C3 C -0.1164(19) -0.220(2) 0.667(3)
H2 H -0.0989 -0.2628 0.7157
H3 H -0.1372 -0.2440 0.6009
H4 H -0.0681 -0.1857 0.6546
C4 C -0.2184(16) -0.1022(14) 0.6427(19)
H5 H -0.2631 -0.0723 0.6753
H6 H -0.1713 -0.0664 0.6300
H7 H -0.2404 -0.1246 0.5763
N1 N -0.1883(17) -0.1694(14) 0.714(2)
H8 H -0.2324 -0.2019 0.7268
H9 H -0.1690 -0.1484 0.7761
O12 O 0.2236(18) 0.5043(17) 0.858(2)
H10 H 0.2535 0.5118 0.9130
H11 H 0.2030 0.4583 0.8650
O13 O 0.009(3) 0.435(3) 0.8529(8)
Gd1 Gd 0.12131(3) 0.18800(3) 0.90939(3)
Fe1 Fe 0.0000 0.04840(10) 0.7500
S1 S 0.10586(14) 0.21912(15) 0.66557(17)
S2 S 0.18587(15) 0.34943(16) 1.0762(2)
O1 O 0.0545(4) 0.0617(4) 0.9002(5)
O2 O 0.1020(4) 0.1412(4) 0.7262(5)
O3 O 0.0860(5) 0.1440(4) 1.0754(5)
O4 O 0.0224(4) 0.2333(4) 0.6079(5)
O5 O 0.1312(6) 0.3169(5) 0.9900(8)
O6 O 0.1212(5) 0.2827(4) 0.7488(5)
O7 O 0.0737(5) 0.0428(4) 1.1853(6)
O8 O 0.1746(5) 0.2178(6) 0.5939(6)
O9 O 0.2562(5) 0.3976(5) 1.0356(8)
C1 C 0.0656(6) 0.0731(6) 1.0949(8)
O10 O 0.1315(6) 0.3916(8) 1.1471(10)
O11 O 0.2308(6) 0.2828(7) 1.1317(9)
C2 C 0.0374(10) 0.0204(9) 0.9964(10)
H1 H 0.0801 -0.0236 0.9987
O1D O -0.0545(4) -0.0617(4) 1.0998(5)
O3D O -0.0860(5) -0.1440(4) 0.9246(5)
O7D O -0.0737(5) -0.0428(4) 0.8147(6)
C1D C -0.0656(6) -0.0731(6) 0.9051(8)
C2D C -0.0374(10) -0.0204(9) 1.0036(10)
H1D H -0.0801 0.0236 1.0013
Gd1A Gd -0.12131(3) 0.18800(3) 0.59061(3)
S1A S -0.10586(14) 0.21912(15) 0.83443(17)
S2A S -0.18587(15) 0.34943(16) 0.4238(2)
O2A O -0.1020(4) 0.1412(4) 0.7738(5)
O4A O -0.0224(4) 0.2333(4) 0.8921(5)
O5A O -0.1312(6) 0.3169(5) 0.5100(8)
O6A O -0.1212(5) 0.2827(4) 0.7512(5)
O8A O -0.1746(5) 0.2178(6) 0.9061(6)
O9A O -0.2562(5) 0.3976(5) 0.4644(8)
O10A O -0.1315(6) 0.3916(8) 0.3529(10)
O11A O -0.2308(6) 0.2828(7) 0.3683(9)
Gd1D Gd -0.12131(3) -0.18800(3) 1.09061(3)
Gd1F Gd 0.37869(3) 0.31200(3) 1.09061(3)
Gd1G Gd -0.37869(3) 0.31200(3) 0.40939(3)
Fe1D Fe 0.0000 -0.04840(10) 1.2500
O1A O -0.0545(4) 0.0617(4) 0.5998(5)
O3A O -0.0860(5) 0.1440(4) 0.4246(5)
O7E O 0.0737(5) -0.0428(4) 0.6853(6)
O9F O 0.2438(5) 0.1024(5) 0.9644(8)
O9G O -0.2438(5) 0.1024(5) 0.5356(8)
O11F O 0.2692(6) 0.2172(7) 0.8683(9)
O11G O -0.2692(6) 0.2172(7) 0.6317(9)
loop_
_geom_bond_atom_site_label_1
_geom_bond_atom_site_label_2
_geom_bond_site_symmetry_1
_geom_bond_site_symmetry_2
Gd1 O1 1_555 1_555
Fe1 O1 1_555 1_555
S1 O2 1_555 1_555
S2 O5 1_555 1_555
O1 C2 1_555 1_555
O2 Gd1 1_555 1_555
O3 Gd1 1_555 1_555
O4 S1 1_555 1_555
O5 Gd1 1_555 1_555
O6 Gd1 1_555 1_555
O7 C1 1_555 1_555
O8 S1 1_555 1_555
O9 S2 1_555 1_555
C1 O3 1_555 1_555
O10 S2 1_555 1_555
O11 S2 1_555 1_555
C2 C1 1_555 1_555
H1 C2 1_555 1_555
C3 H2 1_555 1_555
H3 C3 1_555 1_555
H4 C3 1_555 1_555
C4 H5 1_555 1_555
H6 C4 1_555 1_555
H7 C4 1_555 1_555
N1 C3 1_555 1_555
H8 N1 1_555 1_555
H9 N1 1_555 1_555
O12 H10 1_555 1_555
H11 O12 1_555 1_555
O1D C2D 1_555 1_555
O3D C1D 1_555 1_555
O7D Fe1 1_555 1_555
C1D O7D 1_555 1_555
C2D C2 1_555 1_555
H1D C2D 1_555 1_555
Gd1A O4 1_555 1_555
S1A O2A 1_555 1_555
S2A O5A 1_555 1_555
O2A Fe1 1_555 1_555
O4A Gd1 1_555 1_555
O5A Gd1A 1_555 1_555
O6A Gd1A 1_555 1_555
O8A S1A 1_555 1_555
O9A S2A 1_555 1_555
O10A S2A 1_555 1_555
O11A S2A 1_555 1_555
Gd1D O1D 1_555 1_555
Gd1F O9 1_555 1_555
Gd1G O9A 1_555 1_555
Fe1D O7 1_555 1_555
O1A Fe1 1_555 1_555
O3A Gd1A 1_555 1_555
O7E Fe1 1_555 1_555
O9F Gd1 1_555 1_555
O9G Gd1A 1_555 1_555
O11F Gd1 1_555 1_555
O11G Gd1A 1_555 1_555
Fe1 O2 1_555 1_555
S1 O6 1_555 1_555
O11 Gd1F 1_555 1_555
C4 N1 1_555 1_555
O1D Fe1D 1_555 1_555
O3D Gd1D 1_555 1_555
C1D C2D 1_555 1_555
Gd1A O2A 1_555 1_555
Gd1A O1A 1_555 1_555
S1A O4A 1_555 1_555
S1A O6A 1_555 1_555
O11A Gd1G 1_555 1_555

#END
