
#######################################################################
#
#                 Cambridge Crystallographic Data Centre
#                                CCDC 
#
#######################################################################
#
# If this CIF has been generated from an entry in the Cambridge 
# Structural Database, then it will include bibliographic, chemical, 
# crystal, experimental, refinement or atomic coordinate data resulting 
# from the CCDC's data processing and validation procedures.
#
#######################################################################

data_DADPAC
_chemical_formula_moiety         '(C6 H16 Fe1 N1 O24 S4 Sm2)n'
_symmetry_cell_setting           monoclinic
_symmetry_space_group_name_H-M   'C 2/c'
_symmetry_Int_Tables_number      15
_space_group_name_Hall           '-C 2yc'
loop_
_symmetry_equiv_pos_site_id
_symmetry_equiv_pos_as_xyz
1 x,y,z
2 -x,y,1/2-z
3 1/2+x,1/2+y,z
4 1/2-x,1/2+y,1/2-z
5 -x,-y,-z
6 x,-y,1/2+z
7 1/2-x,1/2-y,-z
8 1/2+x,1/2-y,1/2+z
_cell_length_a                   15.498(4)
_cell_length_b                   16.400(4)
_cell_length_c                   12.660(3)
_cell_angle_alpha                90
_cell_angle_beta                 93.360(4)
_cell_angle_gamma                90
_cell_volume                     3212.23
loop_
_atom_site_label
_atom_site_type_symbol
_atom_site_fract_x
_atom_site_fract_y
_atom_site_fract_z
C3 C -0.1107(15) -0.2317(17) 0.6653(19)
H2 H -0.1006 -0.2749 0.7157
H3 H -0.1294 -0.2543 0.5979
H4 H -0.0582 -0.2015 0.6586
C4 C -0.2192(15) -0.0994(14) 0.654(2)
H5 H -0.2620 -0.0776 0.6982
H6 H -0.1746 -0.0596 0.6465
H7 H -0.2457 -0.1124 0.5858
N1 N -0.1812(15) -0.1743(13) 0.7036(19)
H8 H -0.2262 -0.2066 0.7131
H9 H -0.1618 -0.1588 0.7680
O12 O 0.2222(15) 0.5046(17) 0.8601(18)
H10 H 0.2521 0.5121 0.9153
H11 H 0.2016 0.4586 0.8673
O13 O 0.006(3) 0.434(3) 0.8523(8)
Sm1 Sm 0.12257(3) 0.19019(3) 0.91378(3)
Fe1 Fe 0.0000 0.05061(10) 0.7500
S1 S 0.10822(12) 0.21911(14) 0.66777(15)
S2 S 0.18208(13) 0.35054(14) 1.07458(19)
O1 O 0.0538(4) 0.0629(4) 0.9015(5)
O2 O 0.1035(4) 0.1416(3) 0.7294(5)
O3 O 0.0861(4) 0.1427(4) 1.0790(4)
O4 O 0.0252(4) 0.2343(4) 0.6097(5)
O5 O 0.1246(5) 0.3256(5) 0.9860(7)
O6 O 0.1236(4) 0.2823(4) 0.7499(5)
O7 O 0.0751(5) 0.0402(4) 1.1860(6)
O8 O 0.1774(4) 0.2172(6) 0.5981(6)
O9 O 0.2534(4) 0.4006(4) 1.0429(6)
C1 C 0.0636(6) 0.0727(6) 1.0969(8)
O10 O 0.1313(5) 0.3891(6) 1.1528(8)
O11 O 0.2251(5) 0.2755(6) 1.1179(8)
C2 C 0.0368(8) 0.0231(8) 0.9960(9)
H1 H 0.0813 -0.0194 0.9985
O1D O -0.0538(4) -0.0629(4) 1.0985(5)
O3D O -0.0861(4) -0.1427(4) 0.9210(4)
O7D O -0.0751(5) -0.0402(4) 0.8140(6)
C1D C -0.0636(6) -0.0727(6) 0.9031(8)
C2D C -0.0368(8) -0.0231(8) 1.0040(9)
H1D H -0.0813 0.0194 1.0015
Sm1A Sm -0.12257(3) 0.19019(3) 0.58622(3)
S1A S -0.10822(12) 0.21911(14) 0.83223(15)
S2A S -0.18208(13) 0.35054(14) 0.42542(19)
O2A O -0.1035(4) 0.1416(3) 0.7706(5)
O4A O -0.0252(4) 0.2343(4) 0.8903(5)
O5A O -0.1246(5) 0.3256(5) 0.5140(7)
O6A O -0.1236(4) 0.2823(4) 0.7501(5)
O8A O -0.1774(4) 0.2172(6) 0.9019(6)
O9A O -0.2534(4) 0.4006(4) 0.4571(6)
O10A O -0.1313(5) 0.3891(6) 0.3472(8)
O11A O -0.2251(5) 0.2755(6) 0.3821(8)
Sm1D Sm -0.12257(3) -0.19019(3) 1.08622(3)
Sm1F Sm 0.37743(3) 0.30981(3) 1.08622(3)
Sm1G Sm -0.37743(3) 0.30981(3) 0.41378(3)
Fe1D Fe 0.0000 -0.05061(10) 1.2500
O1A O -0.0538(4) 0.0629(4) 0.5985(5)
O3A O -0.0861(4) 0.1427(4) 0.4210(4)
O7E O 0.0751(5) -0.0402(4) 0.6860(6)
O9F O 0.2466(4) 0.0994(4) 0.9571(6)
O9G O -0.2466(4) 0.0994(4) 0.5429(6)
O11F O 0.2749(5) 0.2245(6) 0.8821(8)
O11G O -0.2749(5) 0.2245(6) 0.6179(8)
loop_
_geom_bond_atom_site_label_1
_geom_bond_atom_site_label_2
_geom_bond_site_symmetry_1
_geom_bond_site_symmetry_2
Sm1 O1 1_555 1_555
Fe1 O1 1_555 1_555
S1 O2 1_555 1_555
S2 O5 1_555 1_555
O1 C2 1_555 1_555
O2 Sm1 1_555 1_555
O3 Sm1 1_555 1_555
O4 S1 1_555 1_555
O5 Sm1 1_555 1_555
O6 Sm1 1_555 1_555
O7 C1 1_555 1_555
O8 S1 1_555 1_555
O9 S2 1_555 1_555
C1 O3 1_555 1_555
O10 S2 1_555 1_555
O11 S2 1_555 1_555
C2 C1 1_555 1_555
H1 C2 1_555 1_555
C3 H2 1_555 1_555
H3 C3 1_555 1_555
H4 C3 1_555 1_555
C4 H5 1_555 1_555
H6 C4 1_555 1_555
H7 C4 1_555 1_555
N1 C3 1_555 1_555
H8 N1 1_555 1_555
H9 N1 1_555 1_555
O12 H10 1_555 1_555
H11 O12 1_555 1_555
O1D C2D 1_555 1_555
O3D C1D 1_555 1_555
O7D Fe1 1_555 1_555
C1D O7D 1_555 1_555
C2D C2 1_555 1_555
H1D C2D 1_555 1_555
Sm1A O4 1_555 1_555
S1A O2A 1_555 1_555
S2A O5A 1_555 1_555
O2A Fe1 1_555 1_555
O4A Sm1 1_555 1_555
O5A Sm1A 1_555 1_555
O6A Sm1A 1_555 1_555
O8A S1A 1_555 1_555
O9A S2A 1_555 1_555
O10A S2A 1_555 1_555
O11A S2A 1_555 1_555
Sm1D O1D 1_555 1_555
Sm1F O9 1_555 1_555
Sm1G O9A 1_555 1_555
Fe1D O7 1_555 1_555
O1A Fe1 1_555 1_555
O3A Sm1A 1_555 1_555
O7E Fe1 1_555 1_555
O9F Sm1 1_555 1_555
O9G Sm1A 1_555 1_555
O11F Sm1 1_555 1_555
O11G Sm1A 1_555 1_555
Fe1 O2 1_555 1_555
S1 O6 1_555 1_555
O11 Sm1F 1_555 1_555
C4 N1 1_555 1_555
O1D Fe1D 1_555 1_555
O3D Sm1D 1_555 1_555
C1D C2D 1_555 1_555
Sm1A O2A 1_555 1_555
Sm1A O1A 1_555 1_555
S1A O4A 1_555 1_555
S1A O6A 1_555 1_555
O11A Sm1G 1_555 1_555

#END
