
#######################################################################
#
#                 Cambridge Crystallographic Data Centre
#                                CCDC 
#
#######################################################################
#
# If this CIF has been generated from an entry in the Cambridge 
# Structural Database, then it will include bibliographic, chemical, 
# crystal, experimental, refinement or atomic coordinate data resulting 
# from the CCDC's data processing and validation procedures.
#
#######################################################################

data_XUNVAF
_chemical_formula_moiety         '(C96 H115 B3 O14 Zn3)n'
_symmetry_cell_setting           cubic
_symmetry_space_group_name_H-M   'I a -3 d'
_symmetry_Int_Tables_number      230
_space_group_name_Hall           '-I 4bd 2c 3'
loop_
_symmetry_equiv_pos_site_id
_symmetry_equiv_pos_as_xyz
1 x,y,z
2 1/4-y,3/4+x,1/4+z
3 x,-y,1/2-z
4 z,x,y
5 1/2-x,-y,1/2+z
6 1/4-y,1/4-x,1/4-z
7 1/4+y,3/4+x,3/4-z
8 1/4+z,1/4-y,3/4+x
9 1/4-x,3/4+z,1/4+y
10 1/2-z,x,-y
11 z,-x,1/2-y
12 y,z,x
13 1/4+y,1/4-x,3/4+z
14 1/2-x,y,-z
15 1/2-z,-x,1/2+y
16 1/4-z,1/4-y,1/4-x
17 1/4-x,1/4-z,1/4-y
18 1/4+z,3/4+y,3/4-x
19 1/4+x,3/4+z,3/4-y
20 1/4-z,3/4+y,1/4+x
21 -y,1/2-z,x
22 y,-z,1/2-x
23 1/2-y,z,-x
24 1/4+x,1/4-z,3/4+y
25 1/2+x,1/2+y,1/2+z
26 3/4-y,1/4+x,3/4+z
27 1/2+x,1/2-y,-z
28 1/2+z,1/2+x,1/2+y
29 -x,1/2-y,z
30 3/4-y,3/4-x,3/4-z
31 3/4+y,1/4+x,1/4-z
32 3/4+z,3/4-y,1/4+x
33 3/4-x,1/4+z,3/4+y
34 -z,1/2+x,1/2-y
35 1/2+z,1/2-x,-y
36 1/2+y,1/2+z,1/2+x
37 3/4+y,3/4-x,1/4+z
38 -x,1/2+y,1/2-z
39 -z,1/2-x,y
40 3/4-z,3/4-y,3/4-x
41 3/4-x,3/4-z,3/4-y
42 3/4+z,1/4+y,1/4-x
43 3/4+x,1/4+z,1/4-y
44 3/4-z,1/4+y,3/4+x
45 1/2-y,-z,1/2+x
46 1/2+y,1/2-z,-x
47 -y,1/2+z,1/2-x
48 3/4+x,3/4-z,1/4+y
49 -x,-y,-z
50 3/4+y,1/4-x,3/4-z
51 -x,y,1/2+z
52 -z,-x,-y
53 1/2+x,y,1/2-z
54 3/4+y,3/4+x,3/4+z
55 3/4-y,1/4-x,1/4+z
56 3/4-z,3/4+y,1/4-x
57 3/4+x,1/4-z,3/4-y
58 1/2+z,-x,y
59 -z,x,1/2+y
60 -y,-z,-x
61 3/4-y,3/4+x,1/4-z
62 1/2+x,-y,z
63 1/2+z,x,1/2-y
64 3/4+z,3/4+y,3/4+x
65 3/4+x,3/4+z,3/4+y
66 3/4-z,1/4-y,1/4+x
67 3/4-x,1/4-z,1/4+y
68 3/4+z,1/4-y,3/4-x
69 y,1/2+z,-x
70 -y,z,1/2+x
71 1/2+y,-z,x
72 3/4-x,3/4+z,1/4-y
73 1/2-x,1/2-y,1/2-z
74 1/4+y,3/4-x,1/4-z
75 1/2-x,1/2+y,z
76 1/2-z,1/2-x,1/2-y
77 x,1/2+y,-z
78 1/4+y,1/4+x,1/4+z
79 1/4-y,3/4-x,3/4+z
80 1/4-z,1/4+y,3/4-x
81 1/4+x,3/4-z,1/4-y
82 z,1/2-x,1/2+y
83 1/2-z,1/2+x,y
84 1/2-y,1/2-z,1/2-x
85 1/4-y,1/4+x,3/4-z
86 x,1/2-y,1/2+z
87 z,1/2+x,-y
88 1/4+z,1/4+y,1/4+x
89 1/4+x,1/4+z,1/4+y
90 1/4-z,3/4-y,3/4+x
91 1/4-x,3/4-z,3/4+y
92 1/4+z,3/4-y,1/4-x
93 1/2+y,z,1/2-x
94 1/2-y,1/2+z,x
95 y,1/2-z,1/2+x
96 1/4-x,1/4+z,3/4-y
_cell_length_a                   37.0156(11)
_cell_length_b                   37.0156(11)
_cell_length_c                   37.0156(11)
_cell_angle_alpha                90
_cell_angle_beta                 90
_cell_angle_gamma                90
_cell_volume                     50717.1
loop_
_atom_site_label
_atom_site_type_symbol
_atom_site_fract_x
_atom_site_fract_y
_atom_site_fract_z
_atom_site_U_iso_or_equiv
_atom_site_thermal_displace_type
Zn1 Zn 0.5000 0.5000 0.5000 0.1343 Uani
Zn2 Zn 0.44242(4) 0.44242(4) 0.44242(4) 0.1681 Uani
O1 O 0.45304(13) 0.47463(14) 0.51731(12) 0.1583 Uani
O2 O 0.42829(19) 0.4277(2) 0.48956(17) 0.1877 Uani
O3 O 0.40894(17) 0.40894(17) 0.40894(17) 0.2220 Uani
C1 C 0.44525(15) 0.38424(17) 0.59885(17) 0.1370 Uani
C2 C 0.39052(15) 0.41914(19) 0.60424(18) 0.1367 Uani
C3 C 0.45237(16) 0.40210(18) 0.56625(19) 0.1493 Uani
C4 C 0.42963(16) 0.42819(17) 0.55421(18) 0.1390 Uani
C5 C 0.47101(16) 0.35354(17) 0.61078(19) 0.1697 Uani
H1 H 0.4661 0.3322 0.5968 0.2550 Uiso
H2 H 0.4673 0.3485 0.6359 0.2550 Uiso
H3 H 0.4956 0.3609 0.6069 0.2550 Uiso
C6 C 0.39819(16) 0.43650(18) 0.57231(16) 0.1427 Uani
C7 C 0.4371(2) 0.4439(3) 0.5172(3) 0.1730 Uani
C8 C 0.41436(16) 0.39326(18) 0.61829(17) 0.1333 Uani
C9 C 0.35542(14) 0.43011(16) 0.62474(16) 0.1430 Uani
H4 H 0.3475 0.4534 0.6166 0.2150 Uiso
H5 H 0.3602 0.4311 0.6502 0.2150 Uiso
H6 H 0.3369 0.4126 0.6201 0.2150 Uiso
C10 C 0.4366(2) 0.3750 0.6866(2) 0.1590 Uani
C11 C 0.48692(17) 0.39122(19) 0.5444(2) 0.1890 Uani
H7 H 0.5080 0.3960 0.5587 0.2830 Uiso
H8 H 0.4880 0.4050 0.5225 0.2830 Uiso
H9 H 0.4859 0.3659 0.5387 0.2830 Uiso
C12 C 0.4534(2) 0.4076(2) 0.6978(2) 0.1623 Uani
C13 C 0.37255(16) 0.4652(2) 0.55689(18) 0.1707 Uani
H10 H 0.3807 0.4723 0.5333 0.2560 Uiso
H11 H 0.3724 0.4859 0.5725 0.2560 Uiso
H12 H 0.3486 0.4554 0.5552 0.2560 Uiso
C14 C 0.4809(3) 0.4053(3) 0.7248(3) 0.2140 Uani
C15 C 0.44171(19) 0.44261(19) 0.6828(2) 0.1737 Uani
H13 H 0.4609 0.4528 0.6687 0.2610 Uiso
H14 H 0.4358 0.4587 0.7023 0.2610 Uiso
H15 H 0.4209 0.4391 0.6678 0.2610 Uiso
B1 B 0.4066(2) 0.3750 0.6566(2) 0.1277 Uani
C16 C 0.4920(5) 0.3750 0.7420(5) 0.3963 Uani
H16 H 0.5098 0.3750 0.7598 0.4750 Uiso
C17 C 0.4961(3) 0.4444(3) 0.7339(3) 0.3267 Uani
H17 H 0.4773 0.4587 0.7446 0.4900 Uiso
H18 H 0.5043 0.4558 0.7121 0.4900 Uiso
H19 H 0.5159 0.4424 0.7506 0.4900 Uiso
O1EA O 0.26731(12) 0.27537(14) 0.70304(13) 0.1583 Uani
O2EA O 0.23956(17) 0.3223(2) 0.67829(19) 0.1877 Uani
C1EA C 0.34885(17) 0.36576(17) 0.69525(15) 0.1370 Uani
C2EA C 0.35424(18) 0.33086(19) 0.64052(15) 0.1367 Uani
C3EA C 0.31625(19) 0.34790(18) 0.70237(16) 0.1493 Uani
C4EA C 0.30421(18) 0.32181(17) 0.67963(16) 0.1390 Uani
C5EA C 0.36078(19) 0.39646(17) 0.72101(16) 0.1697 Uani
H1EA H 0.3468 0.4178 0.7161 0.2550 Uiso
H2EA H 0.3859 0.4015 0.7173 0.2550 Uiso
H3EA H 0.3569 0.3891 0.7456 0.2550 Uiso
C6EA C 0.32231(16) 0.31350(18) 0.64819(16) 0.1427 Uani
C7EA C 0.2672(3) 0.3061(3) 0.6871(2) 0.1730 Uani
C8EA C 0.36829(17) 0.35674(18) 0.66436(16) 0.1333 Uani
C9EA C 0.37474(16) 0.31989(16) 0.60542(14) 0.1430 Uani
H4EA H 0.3666 0.2966 0.5975 0.2150 Uiso
H5EA H 0.4002 0.3189 0.6102 0.2150 Uiso
H6EA H 0.3701 0.3374 0.5869 0.2150 Uiso
C11EA C 0.2944(2) 0.35878(19) 0.73692(17) 0.1890 Uani
H7EA H 0.3087 0.3540 0.7580 0.2830 Uiso
H8EA H 0.2725 0.3450 0.7380 0.2830 Uiso
H9EA H 0.2887 0.3841 0.7359 0.2830 Uiso
C12EA C 0.4478(2) 0.3424(2) 0.7034(2) 0.1623 Uani
C13EA C 0.30689(18) 0.2848(2) 0.62255(16) 0.1707 Uani
H10EA H 0.2833 0.2777 0.6307 0.2560 Uiso
H11EA H 0.3225 0.2641 0.6224 0.2560 Uiso
H12EA H 0.3052 0.2946 0.5986 0.2560 Uiso
C14EA C 0.4748(3) 0.3447(3) 0.7309(3) 0.2140 Uani
C15EA C 0.4328(2) 0.30739(19) 0.69171(19) 0.1737 Uani
H13EA H 0.4187 0.2972 0.7109 0.2610 Uiso
H14EA H 0.4523 0.2913 0.6858 0.2610 Uiso
H15EA H 0.4178 0.3109 0.6709 0.2610 Uiso
C17EA C 0.4839(3) 0.3056(3) 0.7461(3) 0.3267 Uani
H17EA H 0.4946 0.2913 0.7273 0.4900 Uiso
H18EA H 0.4621 0.2942 0.7543 0.4900 Uiso
H19EA H 0.5006 0.3076 0.7659 0.4900 Uiso
Zn2VA Zn 0.55758(4) 0.55758(4) 0.55758(4) 0.1681 Uani
O3VA O 0.59106(17) 0.59106(17) 0.59106(17) 0.2220 Uani
O1YA O 0.48269(12) 0.54696(13) 0.52537(14) 0.1583 Uani
O2YA O 0.51044(17) 0.57171(19) 0.5723(2) 0.1877 Uani
C1YA C 0.40115(17) 0.55475(15) 0.61576(17) 0.1370 Uani
C2YA C 0.39576(18) 0.60948(15) 0.58086(19) 0.1367 Uani
C3YA C 0.43375(19) 0.54763(16) 0.59790(18) 0.1493 Uani
C4YA C 0.44579(18) 0.57037(16) 0.57181(17) 0.1390 Uani
C5YA C 0.38922(19) 0.52899(16) 0.64646(17) 0.1697 Uani
H1YA H 0.4032 0.5339 0.6678 0.2550 Uiso
H2YA H 0.3641 0.5327 0.6515 0.2550 Uiso
H3YA H 0.3931 0.5044 0.6391 0.2550 Uiso
C6YA C 0.42769(16) 0.60181(16) 0.56350(18) 0.1427 Uani
C7YA C 0.4828(3) 0.5629(2) 0.5561(3) 0.1730 Uani
C8YA C 0.38171(17) 0.58564(16) 0.60674(18) 0.1333 Uani
C9YA C 0.37526(16) 0.64458(14) 0.56989(16) 0.1430 Uani
H4YA H 0.3834 0.6525 0.5466 0.2150 Uiso
H5YA H 0.3498 0.6398 0.5689 0.2150 Uiso
H6YA H 0.3799 0.6631 0.5874 0.2150 Uiso
C10YA C 0.3134(2) 0.5634(2) 0.6250 0.1590 Uani
C11YA C 0.4556(2) 0.51308(17) 0.60878(19) 0.1890 Uani
H7YA H 0.4413 0.4920 0.6040 0.2830 Uiso
H8YA H 0.4775 0.5120 0.5950 0.2830 Uiso
H9YA H 0.4613 0.5141 0.6341 0.2830 Uiso
C12YA C 0.3022(2) 0.5466(2) 0.5924(2) 0.1623 Uani
C13YA C 0.44311(18) 0.62745(16) 0.5348(2) 0.1707 Uani
H10YA H 0.4667 0.6193 0.5277 0.2560 Uiso
H11YA H 0.4275 0.6276 0.5141 0.2560 Uiso
H12YA H 0.4448 0.6514 0.5446 0.2560 Uiso
C14YA C 0.2752(3) 0.5191(3) 0.5947(3) 0.2140 Uani
C15YA C 0.3172(2) 0.55829(19) 0.55739(19) 0.1737 Uani
H13YA H 0.3313 0.5391 0.5472 0.2610 Uiso
H14YA H 0.2977 0.5642 0.5413 0.2610 Uiso
H15YA H 0.3322 0.5791 0.5609 0.2610 Uiso
B1YA B 0.3434(2) 0.5934(2) 0.6250 0.1277 Uani
C16YA C 0.2580(5) 0.5080(5) 0.6250 0.3963 Uani
H16YA H 0.2402 0.4902 0.6250 0.4750 Uiso
C17YA C 0.2661(3) 0.5039(3) 0.5556(3) 0.3267 Uani
H17YA H 0.2554 0.5227 0.5413 0.4900 Uiso
H18YA H 0.2879 0.4957 0.5442 0.4900 Uiso
H19YA H 0.2494 0.4841 0.5576 0.4900 Uiso
O1NB O 0.29696(13) 0.73269(12) 0.72463(14) 0.1583 Uani
O2NB O 0.32171(19) 0.76044(17) 0.6777(2) 0.1877 Uani
C1NB C 0.30475(15) 0.65115(17) 0.63424(17) 0.1370 Uani
C2NB C 0.35948(15) 0.64576(18) 0.66914(19) 0.1367 Uani
C3NB C 0.29763(16) 0.68375(19) 0.65210(18) 0.1493 Uani
C4NB C 0.32037(16) 0.69579(18) 0.67819(17) 0.1390 Uani
C5NB C 0.27899(16) 0.63922(19) 0.60354(17) 0.1697 Uani
H1NB H 0.2839 0.6532 0.5822 0.2550 Uiso
H2NB H 0.2827 0.6141 0.5985 0.2550 Uiso
H3NB H 0.2544 0.6431 0.6109 0.2550 Uiso
C6NB C 0.35181(16) 0.67769(16) 0.68650(18) 0.1427 Uani
C7NB C 0.3129(2) 0.7328(3) 0.6939(3) 0.1730 Uani
C8NB C 0.33564(16) 0.63171(17) 0.64326(18) 0.1333 Uani
C9NB C 0.39458(14) 0.62526(16) 0.68011(16) 0.1430 Uani
H4NB H 0.4025 0.6334 0.7034 0.2150 Uiso
H5NB H 0.3898 0.5998 0.6811 0.2150 Uiso
H6NB H 0.4131 0.6299 0.6626 0.2150 Uiso
C11NB C 0.26308(17) 0.7056(2) 0.64122(19) 0.1890 Uani
H7NB H 0.2420 0.6913 0.6460 0.2830 Uiso
H8NB H 0.2620 0.7275 0.6550 0.2830 Uiso
H9NB H 0.2641 0.7113 0.6159 0.2830 Uiso
C12NB C 0.2966(2) 0.5522(2) 0.6576(2) 0.1623 Uani
C13NB C 0.37745(16) 0.69311(18) 0.7152(2) 0.1707 Uani
H10NB H 0.3693 0.7167 0.7223 0.2560 Uiso
H11NB H 0.3776 0.6775 0.7359 0.2560 Uiso
H12NB H 0.4014 0.6948 0.7054 0.2560 Uiso
C14NB C 0.2691(3) 0.5252(3) 0.6553(3) 0.2140 Uani
C15NB C 0.30829(19) 0.5672(2) 0.69261(19) 0.1737 Uani
H13NB H 0.2891 0.5813 0.7028 0.2610 Uiso
H14NB H 0.3142 0.5477 0.7087 0.2610 Uiso
H15NB H 0.3291 0.5822 0.6891 0.2610 Uiso
C17NB C 0.2539(3) 0.5161(3) 0.6944(3) 0.3267 Uani
H17NB H 0.2727 0.5054 0.7087 0.4900 Uiso
H18NB H 0.2457 0.5379 0.7058 0.4900 Uiso
H19NB H 0.2341 0.4994 0.6924 0.4900 Uiso
O1GB O 0.52537(14) 0.48269(12) 0.54696(13) 0.1583 Uani
O2GB O 0.5723(2) 0.51044(17) 0.57171(19) 0.1877 Uani
C1GB C 0.61576(17) 0.40115(17) 0.55475(15) 0.1370 Uani
C2GB C 0.58086(19) 0.39576(18) 0.60948(15) 0.1367 Uani
C3GB C 0.59790(18) 0.43375(19) 0.54763(16) 0.1493 Uani
C4GB C 0.57181(17) 0.44579(18) 0.57037(16) 0.1390 Uani
C5GB C 0.64646(17) 0.38922(19) 0.52899(16) 0.1697 Uani
H1GB H 0.6678 0.4032 0.5339 0.2550 Uiso
H2GB H 0.6515 0.3641 0.5327 0.2550 Uiso
H3GB H 0.6391 0.3931 0.5044 0.2550 Uiso
C6GB C 0.56350(18) 0.42769(16) 0.60181(16) 0.1427 Uani
C7GB C 0.5561(3) 0.4828(3) 0.5629(2) 0.1730 Uani
C8GB C 0.60674(18) 0.38171(17) 0.58564(16) 0.1333 Uani
C9GB C 0.56989(16) 0.37526(16) 0.64458(14) 0.1430 Uani
H4GB H 0.5466 0.3834 0.6525 0.2150 Uiso
H5GB H 0.5689 0.3498 0.6398 0.2150 Uiso
H6GB H 0.5874 0.3799 0.6631 0.2150 Uiso
C10GB C 0.6250 0.3134(2) 0.5634(2) 0.1590 Uani
C11GB C 0.60878(19) 0.4556(2) 0.51308(17) 0.1890 Uani
H7GB H 0.6040 0.4413 0.4920 0.2830 Uiso
H8GB H 0.5950 0.4775 0.5120 0.2830 Uiso
H9GB H 0.6341 0.4613 0.5141 0.2830 Uiso
C12GB C 0.5924(2) 0.3022(2) 0.5466(2) 0.1623 Uani
C13GB C 0.5348(2) 0.44311(18) 0.62745(16) 0.1707 Uani
H10GB H 0.5277 0.4667 0.6193 0.2560 Uiso
H11GB H 0.5141 0.4275 0.6276 0.2560 Uiso
H12GB H 0.5446 0.4448 0.6514 0.2560 Uiso
C14GB C 0.5947(3) 0.2752(3) 0.5191(3) 0.2140 Uani
C15GB C 0.55739(19) 0.3172(2) 0.55829(19) 0.1737 Uani
H13GB H 0.5472 0.3313 0.5391 0.2610 Uiso
H14GB H 0.5413 0.2977 0.5642 0.2610 Uiso
H15GB H 0.5609 0.3322 0.5791 0.2610 Uiso
B1GB B 0.6250 0.3434(2) 0.5934(2) 0.1277 Uani
C16GB C 0.6250 0.2580(5) 0.5080(5) 0.3963 Uani
H16GB H 0.6250 0.2402 0.4902 0.4750 Uiso
C17GB C 0.5556(3) 0.2661(3) 0.5039(3) 0.3267 Uani
H17GB H 0.5413 0.2554 0.5227 0.4900 Uiso
H18GB H 0.5442 0.2879 0.4957 0.4900 Uiso
H19GB H 0.5576 0.2494 0.4841 0.4900 Uiso
O1UB O 0.72463(14) 0.29696(13) 0.73269(12) 0.1583 Uani
O2UB O 0.6777(2) 0.32171(19) 0.76044(17) 0.1877 Uani
C1UB C 0.63424(17) 0.30475(15) 0.65115(17) 0.1370 Uani
C2UB C 0.66914(19) 0.35948(15) 0.64576(18) 0.1367 Uani
C3UB C 0.65210(18) 0.29763(16) 0.68375(19) 0.1493 Uani
C4UB C 0.67819(17) 0.32037(16) 0.69579(18) 0.1390 Uani
C5UB C 0.60354(17) 0.27899(16) 0.63922(19) 0.1697 Uani
H1UB H 0.5822 0.2839 0.6532 0.2550 Uiso
H2UB H 0.5985 0.2827 0.6141 0.2550 Uiso
H3UB H 0.6109 0.2544 0.6431 0.2550 Uiso
C6UB C 0.68650(18) 0.35181(16) 0.67769(16) 0.1427 Uani
C7UB C 0.6939(3) 0.3129(2) 0.7328(3) 0.1730 Uani
C8UB C 0.64326(18) 0.33564(16) 0.63171(17) 0.1333 Uani
C9UB C 0.68011(16) 0.39458(14) 0.62526(16) 0.1430 Uani
H4UB H 0.7034 0.4025 0.6334 0.2150 Uiso
H5UB H 0.6811 0.3898 0.5998 0.2150 Uiso
H6UB H 0.6626 0.4131 0.6299 0.2150 Uiso
C11UB C 0.64122(19) 0.26308(17) 0.7056(2) 0.1890 Uani
H7UB H 0.6460 0.2420 0.6913 0.2830 Uiso
H8UB H 0.6550 0.2620 0.7275 0.2830 Uiso
H9UB H 0.6159 0.2641 0.7113 0.2830 Uiso
C12UB C 0.6576(2) 0.2966(2) 0.5522(2) 0.1623 Uani
C13UB C 0.7152(2) 0.37745(16) 0.69311(18) 0.1707 Uani
H10UB H 0.7223 0.3693 0.7167 0.2560 Uiso
H11UB H 0.7359 0.3776 0.6775 0.2560 Uiso
H12UB H 0.7054 0.4014 0.6948 0.2560 Uiso
C14UB C 0.6553(3) 0.2691(3) 0.5252(3) 0.2140 Uani
C15UB C 0.69261(19) 0.30829(19) 0.5672(2) 0.1737 Uani
H13UB H 0.7028 0.2891 0.5813 0.2610 Uiso
H14UB H 0.7087 0.3142 0.5477 0.2610 Uiso
H15UB H 0.6891 0.3291 0.5822 0.2610 Uiso
C17UB C 0.6944(3) 0.2539(3) 0.5161(3) 0.3267 Uani
H17UB H 0.7087 0.2727 0.5054 0.4900 Uiso
H18UB H 0.7058 0.2457 0.5379 0.4900 Uiso
H19UB H 0.6924 0.2341 0.4994 0.4900 Uiso
Zn1A Zn 0.7500 0.2500 0.7500 0.1343 Uani
Zn1DA Zn 0.2500 0.7500 0.7500 0.1343 Uani
Zn1EA Zn 0.2500 0.2500 0.7500 0.1343 Uani
Zn2EA Zn 0.19242(4) 0.30758(4) 0.69242(4) 0.1681 Uani
Zn2BB Zn 0.30758(4) 0.80758(4) 0.69242(4) 0.1681 Uani
Zn2UB Zn 0.69242(4) 0.30758(4) 0.80758(4) 0.1681 Uani
O1C O 0.51731(12) 0.45304(13) 0.47463(14) 0.1583 Uani
O1K O 0.47463(14) 0.51731(12) 0.45304(13) 0.1583 Uani
O1VA O 0.54696(13) 0.52537(14) 0.48269(12) 0.1583 Uani
O2C O 0.48956(17) 0.42829(19) 0.4277(2) 0.1877 Uani
O2K O 0.4277(2) 0.48956(17) 0.42829(19) 0.1877 Uani
O2VA O 0.57171(19) 0.5723(2) 0.51044(17) 0.1877 Uani
loop_
_atom_site_aniso_label
_atom_site_aniso_U_11
_atom_site_aniso_U_22
_atom_site_aniso_U_33
_atom_site_aniso_U_23
_atom_site_aniso_U_13
_atom_site_aniso_U_12
Zn1 0.1343(9) 0.1343(9) 0.1343(9) 0.0755(10) 0.0755(10) 0.0755(10)
Zn2 0.1681(9) 0.1681(9) 0.1681(9) 0.0825(10) 0.0825(10) 0.0825(10)
O1 0.150(4) 0.154(4) 0.171(4) 0.086(3) 0.096(3) 0.072(3)
O2 0.179(5) 0.207(6) 0.177(5) 0.099(5) 0.077(5) 0.069(4)
O3 0.222(4) 0.222(4) 0.222(4) 0.001(5) 0.001(5) 0.001(5)
C1 0.093(4) 0.156(5) 0.162(5) 0.073(4) 0.041(4) 0.007(4)
C2 0.093(4) 0.167(6) 0.150(5) 0.062(5) 0.040(4) -0.009(4)
C3 0.107(4) 0.157(5) 0.184(6) 0.100(5) 0.062(4) 0.021(4)
C4 0.106(4) 0.146(5) 0.165(5) 0.093(4) 0.061(4) 0.039(4)
C5 0.126(5) 0.165(6) 0.218(7) 0.114(6) 0.035(5) 0.000(4)
C6 0.114(4) 0.180(6) 0.134(5) 0.075(4) 0.053(4) 0.024(4)
C7 0.129(6) 0.179(9) 0.211(9) 0.129(8) 0.115(7) 0.082(6)
C8 0.096(4) 0.158(5) 0.146(5) 0.065(4) 0.028(4) -0.030(4)
C9 0.105(4) 0.177(6) 0.147(5) 0.040(4) 0.060(4) -0.008(4)
C10 0.157(5) 0.163(9) 0.157(5) 0.071(5) -0.008(7) -0.071(5)
C11 0.139(5) 0.204(7) 0.224(7) 0.142(6) 0.097(5) 0.062(5)
C12 0.154(6) 0.156(6) 0.177(7) 0.053(6) 0.004(5) -0.069(5)
C13 0.124(5) 0.223(7) 0.165(5) 0.079(5) 0.064(4) 0.066(5)
C14 0.201(9) 0.229(10) 0.212(9) 0.001(8) -0.051(7) -0.120(9)
C15 0.183(7) 0.140(5) 0.198(7) 0.047(5) 0.020(5) -0.055(5)
B1 0.120(5) 0.143(8) 0.120(5) 0.037(5) 0.006(6) -0.037(5)
C16 0.49(3) 0.209(17) 0.49(3) 0.157(18) -0.13(3) -0.157(18)
C17 0.389(16) 0.355(15) 0.236(10) 0.010(10) -0.065(11) -0.246(14)
O1EA 0.171 0.154 0.15 -0.072 0.096 -0.086
O2EA 0.177 0.207 0.179 -0.069 0.077 -0.099
C1EA 0.162 0.156 0.093 -0.007 0.041 -0.073
C2EA 0.15 0.167 0.093 0.009 0.04 -0.062
C3EA 0.184 0.157 0.107 -0.021 0.062 -0.1
C4EA 0.165 0.146 0.106 -0.039 0.061 -0.093
C5EA 0.218 0.165 0.126 0 0.035 -0.114
C6EA 0.134 0.18 0.114 -0.024 0.053 -0.075
C7EA 0.211 0.179 0.129 -0.082 0.115 -0.129
C8EA 0.146 0.158 0.096 0.03 0.028 -0.065
C9EA 0.147 0.177 0.105 0.008 0.06 -0.04
C11EA 0.224 0.204 0.139 -0.062 0.097 -0.142
C12EA 0.177 0.156 0.154 0.069 0.004 -0.053
C13EA 0.165 0.223 0.124 -0.066 0.064 -0.079
C14EA 0.212 0.229 0.201 0.12 -0.051 -0.001
C15EA 0.198 0.14 0.183 0.055 0.02 -0.047
C17EA 0.236 0.355 0.389 0.246 -0.065 -0.01
Zn2VA 0.1681 0.1681 0.1681 0.0825 0.0825 0.0825
O3VA 0.222 0.222 0.222 0.001 0.001 0.001
O1YA 0.171 0.15 0.154 0.072 0.086 0.096
O2YA 0.177 0.179 0.207 0.069 0.099 0.077
C1YA 0.162 0.093 0.156 0.007 0.073 0.041
C2YA 0.15 0.093 0.167 -0.009 0.062 0.04
C3YA 0.184 0.107 0.157 0.021 0.1 0.062
C4YA 0.165 0.106 0.146 0.039 0.093 0.061
C5YA 0.218 0.126 0.165 0 0.114 0.035
C6YA 0.134 0.114 0.18 0.024 0.075 0.053
C7YA 0.211 0.129 0.179 0.082 0.129 0.115
C8YA 0.146 0.096 0.158 -0.03 0.065 0.028
C9YA 0.147 0.105 0.177 -0.008 0.04 0.06
C10YA 0.157 0.157 0.163 -0.071 0.071 -0.008
C11YA 0.224 0.139 0.204 0.062 0.142 0.097
C12YA 0.177 0.154 0.156 -0.069 0.053 0.004
C13YA 0.165 0.124 0.223 0.066 0.079 0.064
C14YA 0.212 0.201 0.229 -0.12 0.001 -0.051
C15YA 0.198 0.183 0.14 -0.055 0.047 0.02
B1YA 0.12 0.12 0.143 -0.037 0.037 0.006
C16YA 0.49 0.49 0.209 -0.157 0.157 -0.13
C17YA 0.236 0.389 0.355 -0.246 0.01 -0.065
O1NB 0.15 0.171 0.154 -0.086 -0.072 0.096
O2NB 0.179 0.177 0.207 -0.099 -0.069 0.077
C1NB 0.093 0.162 0.156 -0.073 -0.007 0.041
C2NB 0.093 0.15 0.167 -0.062 0.009 0.04
C3NB 0.107 0.184 0.157 -0.1 -0.021 0.062
C4NB 0.106 0.165 0.146 -0.093 -0.039 0.061
C5NB 0.126 0.218 0.165 -0.114 0 0.035
C6NB 0.114 0.134 0.18 -0.075 -0.024 0.053
C7NB 0.129 0.211 0.179 -0.129 -0.082 0.115
C8NB 0.096 0.146 0.158 -0.065 0.03 0.028
C9NB 0.105 0.147 0.177 -0.04 0.008 0.06
C11NB 0.139 0.224 0.204 -0.142 -0.062 0.097
C12NB 0.154 0.177 0.156 -0.053 0.069 0.004
C13NB 0.124 0.165 0.223 -0.079 -0.066 0.064
C14NB 0.201 0.212 0.229 -0.001 0.12 -0.051
C15NB 0.183 0.198 0.14 -0.047 0.055 0.02
C17NB 0.389 0.236 0.355 -0.01 0.246 -0.065
O1GB 0.154 0.171 0.15 0.096 0.072 0.086
O2GB 0.207 0.177 0.179 0.077 0.069 0.099
C1GB 0.156 0.162 0.093 0.041 0.007 0.073
C2GB 0.167 0.15 0.093 0.04 -0.009 0.062
C3GB 0.157 0.184 0.107 0.062 0.021 0.1
C4GB 0.146 0.165 0.106 0.061 0.039 0.093
C5GB 0.165 0.218 0.126 0.035 0 0.114
C6GB 0.18 0.134 0.114 0.053 0.024 0.075
C7GB 0.179 0.211 0.129 0.115 0.082 0.129
C8GB 0.158 0.146 0.096 0.028 -0.03 0.065
C9GB 0.177 0.147 0.105 0.06 -0.008 0.04
C10GB 0.163 0.157 0.157 -0.008 -0.071 0.071
C11GB 0.204 0.224 0.139 0.097 0.062 0.142
C12GB 0.156 0.177 0.154 0.004 -0.069 0.053
C13GB 0.223 0.165 0.124 0.064 0.066 0.079
C14GB 0.229 0.212 0.201 -0.051 -0.12 0.001
C15GB 0.14 0.198 0.183 0.02 -0.055 0.047
B1GB 0.143 0.12 0.12 0.006 -0.037 0.037
C16GB 0.209 0.49 0.49 -0.13 -0.157 0.157
C17GB 0.355 0.236 0.389 -0.065 -0.246 0.01
O1UB 0.154 0.15 0.171 0.096 -0.086 -0.072
O2UB 0.207 0.179 0.177 0.077 -0.099 -0.069
C1UB 0.156 0.093 0.162 0.041 -0.073 -0.007
C2UB 0.167 0.093 0.15 0.04 -0.062 0.009
C3UB 0.157 0.107 0.184 0.062 -0.1 -0.021
C4UB 0.146 0.106 0.165 0.061 -0.093 -0.039
C5UB 0.165 0.126 0.218 0.035 -0.114 0
C6UB 0.18 0.114 0.134 0.053 -0.075 -0.024
C7UB 0.179 0.129 0.211 0.115 -0.129 -0.082
C8UB 0.158 0.096 0.146 0.028 -0.065 0.03
C9UB 0.177 0.105 0.147 0.06 -0.04 0.008
C11UB 0.204 0.139 0.224 0.097 -0.142 -0.062
C12UB 0.156 0.154 0.177 0.004 -0.053 0.069
C13UB 0.223 0.124 0.165 0.064 -0.079 -0.066
C14UB 0.229 0.201 0.212 -0.051 -0.001 0.12
C15UB 0.14 0.183 0.198 0.02 -0.047 0.055
C17UB 0.355 0.389 0.236 -0.065 -0.01 0.246
Zn1A 0.1343 0.1343 0.1343 0.0755 -0.0755 -0.0755
Zn1DA 0.1343 0.1343 0.1343 -0.0755 -0.0755 0.0755
Zn1EA 0.1343 0.1343 0.1343 -0.0755 0.0755 -0.0755
Zn2EA 0.1681 0.1681 0.1681 -0.0825 0.0825 -0.0825
Zn2BB 0.1681 0.1681 0.1681 -0.0825 -0.0825 0.0825
Zn2UB 0.1681 0.1681 0.1681 0.0825 -0.0825 -0.0825
O1C 0.171 0.15 0.154 0.072 0.086 0.096
O1K 0.154 0.171 0.15 0.096 0.072 0.086
O1VA 0.15 0.154 0.171 0.086 0.096 0.072
O2C 0.177 0.179 0.207 0.069 0.099 0.077
O2K 0.207 0.177 0.179 0.077 0.069 0.099
O2VA 0.179 0.207 0.177 0.099 0.077 0.069
loop_
_geom_bond_atom_site_label_1
_geom_bond_atom_site_label_2
_geom_bond_site_symmetry_1
_geom_bond_site_symmetry_2
Zn1 O1 1_555 1_555
Zn2 O2 1_555 1_555
O1 C7 1_555 1_555
O2 C7 1_555 1_555
O3 Zn2 1_555 1_555
C1 C3 1_555 1_555
C2 C6 1_555 1_555
C3 C4 1_555 1_555
C4 C6 1_555 1_555
C5 C1 1_555 1_555
H1 C5 1_555 1_555
H2 C5 1_555 1_555
H3 C5 1_555 1_555
C6 C13 1_555 1_555
C7 C4 1_555 1_555
C8 C1 1_555 1_555
C9 C2 1_555 1_555
H4 C9 1_555 1_555
H5 C9 1_555 1_555
H6 C9 1_555 1_555
C10 C12 1_555 1_555
C11 C3 1_555 1_555
H7 C11 1_555 1_555
H8 C11 1_555 1_555
H9 C11 1_555 1_555
C12 C14 1_555 1_555
C13 H10 1_555 1_555
H11 C13 1_555 1_555
H12 C13 1_555 1_555
C14 C16 1_555 1_555
C15 C12 1_555 1_555
H13 C15 1_555 1_555
H14 C15 1_555 1_555
H15 C15 1_555 1_555
B1 C8 1_555 1_555
C16 H16 1_555 1_555
C17 C14 1_555 1_555
H17 C17 1_555 1_555
H18 C17 1_555 1_555
H19 C17 1_555 1_555
O1EA C7EA 1_555 1_555
O2EA C7EA 1_555 1_555
C1EA C3EA 1_555 1_555
C2EA C6EA 1_555 1_555
C3EA C4EA 1_555 1_555
C4EA C6EA 1_555 1_555
C5EA C1EA 1_555 1_555
H1EA C5EA 1_555 1_555
H2EA C5EA 1_555 1_555
H3EA C5EA 1_555 1_555
C6EA C13EA 1_555 1_555
C7EA C4EA 1_555 1_555
C8EA B1 1_555 1_555
C9EA C2EA 1_555 1_555
H4EA C9EA 1_555 1_555
H5EA C9EA 1_555 1_555
H6EA C9EA 1_555 1_555
C11EA C3EA 1_555 1_555
H7EA C11EA 1_555 1_555
H8EA C11EA 1_555 1_555
H9EA C11EA 1_555 1_555
C12EA C10 1_555 1_555
C13EA H10EA 1_555 1_555
H11EA C13EA 1_555 1_555
H12EA C13EA 1_555 1_555
C14EA C16 1_555 1_555
C15EA C12EA 1_555 1_555
H13EA C15EA 1_555 1_555
H14EA C15EA 1_555 1_555
H15EA C15EA 1_555 1_555
C17EA C14EA 1_555 1_555
H17EA C17EA 1_555 1_555
H18EA C17EA 1_555 1_555
H19EA C17EA 1_555 1_555
Zn2VA O3VA 1_555 1_555
O1YA Zn1 1_555 1_555
O2YA Zn2VA 1_555 1_555
C1YA C3YA 1_555 1_555
C2YA C6YA 1_555 1_555
C3YA C4YA 1_555 1_555
C4YA C6YA 1_555 1_555
C5YA C1YA 1_555 1_555
H1YA C5YA 1_555 1_555
H2YA C5YA 1_555 1_555
H3YA C5YA 1_555 1_555
C6YA C13YA 1_555 1_555
C7YA O1YA 1_555 1_555
C8YA C1YA 1_555 1_555
C9YA C2YA 1_555 1_555
H4YA C9YA 1_555 1_555
H5YA C9YA 1_555 1_555
H6YA C9YA 1_555 1_555
C10YA C12YA 1_555 1_555
C11YA C3YA 1_555 1_555
H7YA C11YA 1_555 1_555
H8YA C11YA 1_555 1_555
H9YA C11YA 1_555 1_555
C12YA C14YA 1_555 1_555
C13YA H10YA 1_555 1_555
H11YA C13YA 1_555 1_555
H12YA C13YA 1_555 1_555
C14YA C16YA 1_555 1_555
C15YA C12YA 1_555 1_555
H13YA C15YA 1_555 1_555
H14YA C15YA 1_555 1_555
H15YA C15YA 1_555 1_555
B1YA C8YA 1_555 1_555
C16YA H16YA 1_555 1_555
C17YA C14YA 1_555 1_555
H17YA C17YA 1_555 1_555
H18YA C17YA 1_555 1_555
H19YA C17YA 1_555 1_555
O1NB C7NB 1_555 1_555
O2NB C7NB 1_555 1_555
C1NB C3NB 1_555 1_555
C2NB C6NB 1_555 1_555
C3NB C4NB 1_555 1_555
C4NB C6NB 1_555 1_555
C5NB C1NB 1_555 1_555
H1NB C5NB 1_555 1_555
H2NB C5NB 1_555 1_555
H3NB C5NB 1_555 1_555
C6NB C13NB 1_555 1_555
C7NB C4NB 1_555 1_555
C8NB B1YA 1_555 1_555
C9NB C2NB 1_555 1_555
H4NB C9NB 1_555 1_555
H5NB C9NB 1_555 1_555
H6NB C9NB 1_555 1_555
C11NB C3NB 1_555 1_555
H7NB C11NB 1_555 1_555
H8NB C11NB 1_555 1_555
H9NB C11NB 1_555 1_555
C12NB C10YA 1_555 1_555
C13NB H10NB 1_555 1_555
H11NB C13NB 1_555 1_555
H12NB C13NB 1_555 1_555
C14NB C16YA 1_555 1_555
C15NB C12NB 1_555 1_555
H13NB C15NB 1_555 1_555
H14NB C15NB 1_555 1_555
H15NB C15NB 1_555 1_555
C17NB C14NB 1_555 1_555
H17NB C17NB 1_555 1_555
H18NB C17NB 1_555 1_555
H19NB C17NB 1_555 1_555
O1GB Zn1 1_555 1_555
O2GB Zn2VA 1_555 1_555
C1GB C3GB 1_555 1_555
C2GB C6GB 1_555 1_555
C3GB C4GB 1_555 1_555
C4GB C6GB 1_555 1_555
C5GB C1GB 1_555 1_555
H1GB C5GB 1_555 1_555
H2GB C5GB 1_555 1_555
H3GB C5GB 1_555 1_555
C6GB C13GB 1_555 1_555
C7GB O1GB 1_555 1_555
C8GB C1GB 1_555 1_555
C9GB C2GB 1_555 1_555
H4GB C9GB 1_555 1_555
H5GB C9GB 1_555 1_555
H6GB C9GB 1_555 1_555
C10GB C12GB 1_555 1_555
C11GB C3GB 1_555 1_555
H7GB C11GB 1_555 1_555
H8GB C11GB 1_555 1_555
H9GB C11GB 1_555 1_555
C12GB C14GB 1_555 1_555
C13GB H10GB 1_555 1_555
H11GB C13GB 1_555 1_555
H12GB C13GB 1_555 1_555
C14GB C16GB 1_555 1_555
C15GB C12GB 1_555 1_555
H13GB C15GB 1_555 1_555
H14GB C15GB 1_555 1_555
H15GB C15GB 1_555 1_555
B1GB C8GB 1_555 1_555
C16GB H16GB 1_555 1_555
C17GB C14GB 1_555 1_555
H17GB C17GB 1_555 1_555
H18GB C17GB 1_555 1_555
H19GB C17GB 1_555 1_555
O1UB C7UB 1_555 1_555
O2UB C7UB 1_555 1_555
C1UB C3UB 1_555 1_555
C2UB C6UB 1_555 1_555
C3UB C4UB 1_555 1_555
C4UB C6UB 1_555 1_555
C5UB C1UB 1_555 1_555
H1UB C5UB 1_555 1_555
H2UB C5UB 1_555 1_555
H3UB C5UB 1_555 1_555
C6UB C13UB 1_555 1_555
C7UB C4UB 1_555 1_555
C8UB B1GB 1_555 1_555
C9UB C2UB 1_555 1_555
H4UB C9UB 1_555 1_555
H5UB C9UB 1_555 1_555
H6UB C9UB 1_555 1_555
C11UB C3UB 1_555 1_555
H7UB C11UB 1_555 1_555
H8UB C11UB 1_555 1_555
H9UB C11UB 1_555 1_555
C12UB C10GB 1_555 1_555
C13UB H10UB 1_555 1_555
H11UB C13UB 1_555 1_555
H12UB C13UB 1_555 1_555
C14UB C16GB 1_555 1_555
C15UB C12UB 1_555 1_555
H13UB C15UB 1_555 1_555
H14UB C15UB 1_555 1_555
H15UB C15UB 1_555 1_555
C17UB C14UB 1_555 1_555
H17UB C17UB 1_555 1_555
H18UB C17UB 1_555 1_555
H19UB C17UB 1_555 1_555
Zn1A O1UB 1_555 1_555
Zn1DA O1NB 1_555 1_555
Zn1EA O1EA 1_555 1_555
Zn2EA O2EA 1_555 1_555
Zn2BB O2NB 1_555 1_555
Zn2UB O2UB 1_555 1_555
O1C Zn1 1_555 1_555
O1K Zn1 1_555 1_555
O1VA Zn1 1_555 1_555
O2C Zn2 1_555 1_555
O2K Zn2 1_555 1_555
O2VA Zn2VA 1_555 1_555
C2 C8 1_555 1_555
C10 B1 1_555 1_555
C1EA C8EA 1_555 1_555
C2EA C8EA 1_555 1_555
C12EA C14EA 1_555 1_555
O2YA C7YA 1_555 1_555
C2YA C8YA 1_555 1_555
C4YA C7YA 1_555 1_555
C10YA B1YA 1_555 1_555
C1NB C8NB 1_555 1_555
C2NB C8NB 1_555 1_555
C12NB C14NB 1_555 1_555
O2GB C7GB 1_555 1_555
C2GB C8GB 1_555 1_555
C4GB C7GB 1_555 1_555
C10GB B1GB 1_555 1_555
C1UB C8UB 1_555 1_555
C2UB C8UB 1_555 1_555
C12UB C14UB 1_555 1_555

#END
