
#######################################################################
#
#                 Cambridge Crystallographic Data Centre
#                                CCDC 
#
#######################################################################
#
# If this CIF has been generated from an entry in the Cambridge 
# Structural Database, then it will include bibliographic, chemical, 
# crystal, experimental, refinement or atomic coordinate data resulting 
# from the CCDC's data processing and validation procedures.
#
#######################################################################

data_KEGZOL
_chemical_formula_moiety         '(C20 H12 Cu4 N17 Zn4 3-)n'
_symmetry_cell_setting           cubic
_symmetry_space_group_name_H-M   'F -4 3 m'
_symmetry_Int_Tables_number      216
_space_group_name_Hall           'F -4 2 3'
loop_
_symmetry_equiv_pos_site_id
_symmetry_equiv_pos_as_xyz
1 x,y,z
2 x,1/2+y,1/2+z
3 1/2+x,y,1/2+z
4 1/2+x,1/2+y,z
5 z,x,y
6 y,z,x
7 1/2+z,x,1/2+y
8 1/2+y,1/2+z,x
9 1/2+z,1/2+x,y
10 y,1/2+z,1/2+x
11 z,1/2+x,1/2+y
12 1/2+y,z,1/2+x
13 -y,x,-z
14 1/2-y,x,1/2-z
15 -y,1/2+x,1/2-z
16 1/2-y,1/2+x,-z
17 -x,z,-y
18 -z,y,-x
19 -x,1/2+z,1/2-y
20 1/2-z,1/2+y,-x
21 1/2-x,1/2+z,-y
22 1/2-z,y,1/2-x
23 1/2-x,z,1/2-y
24 -z,1/2+y,1/2-x
25 x,-y,-z
26 x,1/2-y,1/2-z
27 1/2+x,-y,1/2-z
28 1/2+x,1/2-y,-z
29 z,-x,-y
30 y,-z,-x
31 1/2+z,-x,1/2-y
32 1/2+y,1/2-z,-x
33 1/2+z,1/2-x,-y
34 y,1/2-z,1/2-x
35 z,1/2-x,1/2-y
36 1/2+y,-z,1/2-x
37 -y,-x,z
38 1/2-y,-x,1/2+z
39 -y,1/2-x,1/2+z
40 1/2-y,1/2-x,z
41 -x,-z,y
42 -z,-y,x
43 -x,1/2-z,1/2+y
44 1/2-z,1/2-y,x
45 1/2-x,1/2-z,y
46 1/2-z,-y,1/2+x
47 1/2-x,-z,1/2+y
48 -z,1/2-y,1/2+x
49 -x,y,-z
50 -x,1/2+y,1/2-z
51 1/2-x,y,1/2-z
52 1/2-x,1/2+y,-z
53 -z,x,-y
54 -y,z,-x
55 1/2-z,x,1/2-y
56 1/2-y,1/2+z,-x
57 1/2-z,1/2+x,-y
58 -y,1/2+z,1/2-x
59 -z,1/2+x,1/2-y
60 1/2-y,z,1/2-x
61 y,x,z
62 1/2+y,x,1/2+z
63 y,1/2+x,1/2+z
64 1/2+y,1/2+x,z
65 x,z,y
66 z,y,x
67 x,1/2+z,1/2+y
68 1/2+z,1/2+y,x
69 1/2+x,1/2+z,y
70 1/2+z,y,1/2+x
71 1/2+x,z,1/2+y
72 z,1/2+y,1/2+x
73 -x,-y,z
74 -x,1/2-y,1/2+z
75 1/2-x,-y,1/2+z
76 1/2-x,1/2-y,z
77 -z,-x,y
78 -y,-z,x
79 1/2-z,-x,1/2+y
80 1/2-y,1/2-z,x
81 1/2-z,1/2-x,y
82 -y,1/2-z,1/2+x
83 -z,1/2-x,1/2+y
84 1/2-y,-z,1/2+x
85 y,-x,-z
86 1/2+y,-x,1/2-z
87 y,1/2-x,1/2-z
88 1/2+y,1/2-x,-z
89 x,-z,-y
90 z,-y,-x
91 x,1/2-z,1/2-y
92 1/2+z,1/2-y,-x
93 1/2+x,1/2-z,-y
94 1/2+z,-y,1/2-x
95 1/2+x,-z,1/2-y
96 z,1/2-y,1/2-x
_cell_length_a                   11.609(3)
_cell_length_b                   11.609(3)
_cell_length_c                   11.609(3)
_cell_angle_alpha                90
_cell_angle_beta                 90
_cell_angle_gamma                90
_cell_volume                     1564.53
loop_
_atom_site_label
_atom_site_type_symbol
_atom_site_fract_x
_atom_site_fract_y
_atom_site_fract_z
Cu1 Cu 0.0000 0.0000 0.0000
Zn1 Zn 0.2500 0.2500 0.2500
C1 C 0.0933(4) 0.0933(4) 0.0933(4)
N1 N 0.1471(7) 0.1471(7) 0.1471(7)
Cu1B Cu 0.5000 -0.0000 0.5000
Cu1A Cu -0.0000 0.5000 0.5000
Cu1C Cu 0.5000 0.5000 0.0000
Cu1B_2 Cu -0.5000 0.0000 -0.5000
Cu1C_2 Cu -0.5000 0.5000 0.0000
Cu1A_2 Cu 0.0000 0.5000 -0.5000
Cu1A_3 Cu 0.0000 -0.5000 -0.5000
Cu1C_3 Cu 0.5000 -0.5000 0.0000
Cu1B_3 Cu 0.5000 0.0000 -0.5000
Cu1C_4 Cu -0.5000 -0.5000 0.0000
Cu1A_4 Cu 0.0000 -0.5000 0.5000
Cu1B_4 Cu -0.5000 -0.0000 0.5000
Zn1B Zn -0.2500 0.2500 -0.2500
Zn1A Zn 0.2500 -0.2500 -0.2500
Zn1C Zn -0.2500 -0.2500 0.2500
C1L C -0.0933(4) 0.0933(4) -0.0933(4)
C1X C 0.0933(4) -0.0933(4) -0.0933(4)
C1JA C -0.0933(4) -0.0933(4) 0.0933(4)
C1M C 0.4067(4) 0.0933(4) 0.4067(4)
C1Y C 0.0933(4) 0.4067(4) 0.4067(4)
C1MA C 0.4067(4) 0.4067(4) 0.0933(4)
C1B C 0.5933(4) 0.0933(4) 0.5933(4)
C1Z C 0.5933(4) -0.0933(4) 0.4067(4)
C1KA C 0.4067(4) -0.0933(4) 0.5933(4)
C1A C 0.0933(4) 0.5933(4) 0.5933(4)
C1N C -0.0933(4) 0.5933(4) 0.4067(4)
C1LA C -0.0933(4) 0.4067(4) 0.5933(4)
C1C C 0.5933(4) 0.5933(4) 0.0933(4)
C1O C 0.4067(4) 0.5933(4) -0.0933(4)
C1AA C 0.5933(4) 0.4067(4) -0.0933(4)
C1B_2 C -0.4067(4) 0.0933(4) -0.4067(4)
C1AA_2 C -0.4067(4) 0.4067(4) -0.0933(4)
C1LA_2 C -0.0933(4) 0.4067(4) -0.4067(4)
C1A_2 C 0.0933(4) -0.4067(4) -0.4067(4)
C1O_2 C 0.4067(4) -0.4067(4) -0.0933(4)
C1KA_2 C 0.4067(4) -0.0933(4) -0.4067(4)
C1C_2 C -0.4067(4) -0.4067(4) 0.0933(4)
C1N_2 C -0.0933(4) -0.4067(4) 0.4067(4)
C1Z_2 C -0.4067(4) -0.0933(4) 0.4067(4)
N1M N 0.3529(7) 0.1471(7) 0.3529(7)
N1Y N 0.1471(7) 0.3529(7) 0.3529(7)
N1MA N 0.3529(7) 0.3529(7) 0.1471(7)
N1L N -0.1471(7) 0.1471(7) -0.1471(7)
N1X N 0.1471(7) -0.1471(7) -0.1471(7)
N1JA N -0.1471(7) -0.1471(7) 0.1471(7)
N1B N -0.3529(7) 0.1471(7) -0.3529(7)
N1AA N -0.3529(7) 0.3529(7) -0.1471(7)
N1LA N -0.1471(7) 0.3529(7) -0.3529(7)
N1A N 0.1471(7) -0.3529(7) -0.3529(7)
N1O N 0.3529(7) -0.3529(7) -0.1471(7)
N1KA N 0.3529(7) -0.1471(7) -0.3529(7)
N1C N -0.3529(7) -0.3529(7) 0.1471(7)
N1N N -0.1471(7) -0.3529(7) 0.3529(7)
N1Z N -0.3529(7) -0.1471(7) 0.3529(7)
C2 C 0.571(1) 0.571(1) 0.571(1)
N2 N 0.5000 0.5000 0.5000
C2L C 0.429(1) 0.571(1) 0.429(1)
C2X C 0.571(1) 0.429(1) 0.429(1)
C2JA C 0.429(1) 0.429(1) 0.571(1)
loop_
_geom_bond_atom_site_label_1
_geom_bond_atom_site_label_2
_geom_bond_site_symmetry_1
_geom_bond_site_symmetry_2
Cu1 C1 1_555 1_555
Zn1 N1 1_555 1_555
C1 N1 1_555 1_555
C2 N2 1_555 1_555
N2 C2L 1_555 1_555
Cu1B C1M 1_555 1_555
Cu1A C1Y 1_555 1_555
Cu1C C1MA 1_555 1_555
Cu1B_2 C1B_2 1_555 1_555
Cu1C_2 C1AA_2 1_555 1_555
Cu1A_2 C1LA_2 1_555 1_555
Cu1A_3 C1A_2 1_555 1_555
Cu1C_3 C1O_2 1_555 1_555
Cu1B_3 C1KA_2 1_555 1_555
Cu1C_4 C1C_2 1_555 1_555
Cu1A_4 C1N_2 1_555 1_555
Cu1B_4 C1Z_2 1_555 1_555
Zn1B N1L 1_555 1_555
Zn1A N1X 1_555 1_555
Zn1C N1JA 1_555 1_555
C1L Cu1 1_555 1_555
C1X Cu1 1_555 1_555
C1JA Cu1 1_555 1_555
C1M N1M 1_555 1_555
C1Y N1Y 1_555 1_555
C1MA N1MA 1_555 1_555
C1B Cu1B 1_555 1_555
C1Z Cu1B 1_555 1_555
C1KA Cu1B 1_555 1_555
C1A Cu1A 1_555 1_555
C1N Cu1A 1_555 1_555
C1LA Cu1A 1_555 1_555
C1C Cu1C 1_555 1_555
C1O Cu1C 1_555 1_555
C1AA Cu1C 1_555 1_555
C1B_2 N1B 1_555 1_555
C1AA_2 N1AA 1_555 1_555
C1LA_2 N1LA 1_555 1_555
C1A_2 N1A 1_555 1_555
C1O_2 N1O 1_555 1_555
C1KA_2 N1KA 1_555 1_555
C1C_2 N1C 1_555 1_555
C1N_2 N1N 1_555 1_555
C1Z_2 N1Z 1_555 1_555
N1M Zn1 1_555 1_555
N1Y Zn1 1_555 1_555
N1MA Zn1 1_555 1_555
N1L C1L 1_555 1_555
N1X C1X 1_555 1_555
N1JA C1JA 1_555 1_555
N1B Zn1B 1_555 1_555
N1AA Zn1B 1_555 1_555
N1LA Zn1B 1_555 1_555
N1A Zn1A 1_555 1_555
N1O Zn1A 1_555 1_555
N1KA Zn1A 1_555 1_555
N1C Zn1C 1_555 1_555
N1N Zn1C 1_555 1_555
N1Z Zn1C 1_555 1_555
C2X N2 1_555 1_555
C2JA N2 1_555 1_555

#END
