
#######################################################################
#
#                 Cambridge Crystallographic Data Centre
#                                CCDC 
#
#######################################################################
#
# If this CIF has been generated from an entry in the Cambridge 
# Structural Database, then it will include bibliographic, chemical, 
# crystal, experimental, refinement or atomic coordinate data resulting 
# from the CCDC's data processing and validation procedures.
#
#######################################################################

data_WEFCAN
_chemical_formula_moiety         '(C29 H33 Fe1 N7 O5 S2)n'
_symmetry_cell_setting           orthorhombic
_symmetry_space_group_name_H-M   'C c c m'
_symmetry_Int_Tables_number      66
_space_group_name_Hall           '-C 2 2c'
loop_
_symmetry_equiv_pos_site_id
_symmetry_equiv_pos_as_xyz
1 x,y,z
2 -x,-y,z
3 -x,y,1/2-z
4 x,-y,1/2-z
5 1/2+x,1/2+y,z
6 1/2-x,1/2-y,z
7 1/2-x,1/2+y,1/2-z
8 1/2+x,1/2-y,1/2-z
9 -x,-y,-z
10 x,y,-z
11 x,-y,1/2+z
12 -x,y,1/2+z
13 1/2-x,1/2-y,-z
14 1/2+x,1/2+y,-z
15 1/2+x,1/2-y,1/2+z
16 1/2-x,1/2+y,1/2+z
_cell_length_a                   8.9846(5)
_cell_length_b                   22.9562(11)
_cell_length_c                   24.0229(12)
_cell_angle_alpha                90
_cell_angle_beta                 90
_cell_angle_gamma                90
_cell_volume                     4954.78
loop_
_atom_site_label
_atom_site_type_symbol
_atom_site_fract_x
_atom_site_fract_y
_atom_site_fract_z
_atom_site_U_iso_or_equiv
_atom_site_thermal_displace_type
Fe1 Fe 0.2500 0.2500 0.5000 0.0301 Uani
S1 S -0.17998(13) 0.37845(6) 0.5000 0.0689 Uani
N1 N 0.1667(2) 0.19186(8) 0.43323(8) 0.0372 Uani
N2 N 0.0443(3) 0.29504(12) 0.5000 0.0377 Uani
C1 C 0.0228(3) 0.18072(11) 0.42660(10) 0.0449 Uani
H1 H -0.0444 0.2009 0.4488 0.0540 Uiso
C2 C -0.0331(3) 0.14138(13) 0.38916(10) 0.0479 Uani
H2 H -0.1351 0.1348 0.3866 0.0570 Uiso
C3 C 0.0652(3) 0.11158(11) 0.35515(8) 0.0373 Uani
C4 C 0.2151(3) 0.12291(12) 0.36025(10) 0.0446 Uani
H3 H 0.2845 0.1038 0.3380 0.0540 Uiso
C5 C 0.2588(3) 0.16321(12) 0.39914(11) 0.0477 Uani
H4 H 0.3600 0.1712 0.4020 0.0570 Uiso
C6 C 0.1012(2) 0.03800(10) 0.28605(8) 0.0325 Uani
H5 H 0.1645 0.0140 0.3093 0.0390 Uiso
H6 H 0.1636 0.0625 0.2629 0.0390 Uiso
C7 C 0.0000 0.0000 0.2500 0.0290 Uani
C8 C -0.0487(4) 0.32923(15) 0.5000 0.0361 Uani
O1 O 0.00390(19) 0.07281(8) 0.31961(6) 0.0432 Uani
Fe1A Fe -0.2500 -0.2500 0.5000 0.0301 Uani
Fe1C Fe 0.2500 -0.2500 0.0000 0.0301 Uani
Fe1B Fe -0.2500 0.2500 0.0000 0.0301 Uani
S1E S 0.67998(13) 0.12155(6) 0.5000 0.0689 Uani
N1A N -0.1667(2) -0.19186(8) 0.43323(8) 0.0372 Uani
N1B N -0.1667(2) 0.19186(8) 0.06677(8) 0.0372 Uani
N1C N 0.1667(2) -0.19186(8) 0.06677(8) 0.0372 Uani
N1E N 0.3333(2) 0.30814(8) 0.43323(8) 0.0372 Uani
N1I N 0.1667(2) 0.19186(8) 0.56677(8) 0.0372 Uani
N1L N 0.3333(2) 0.30814(8) 0.56677(8) 0.0372 Uani
N2E N 0.4557(3) 0.20496(12) 0.5000 0.0377 Uani
C1A C -0.0228(3) -0.18072(11) 0.42660(10) 0.0449 Uani
C1B C -0.0228(3) 0.18072(11) 0.07340(10) 0.0449 Uani
C1C C 0.0228(3) -0.18072(11) 0.07340(10) 0.0449 Uani
H1A H 0.0444 -0.2009 0.4488 0.0540 Uiso
H1B H 0.0444 0.2009 0.0512 0.0540 Uiso
H1C H -0.0444 -0.2009 0.0512 0.0540 Uiso
C2A C 0.0331(3) -0.14138(13) 0.38916(10) 0.0479 Uani
C2B C 0.0331(3) 0.14138(13) 0.11084(10) 0.0479 Uani
C2C C -0.0331(3) -0.14138(13) 0.11084(10) 0.0479 Uani
H2A H 0.1351 -0.1348 0.3866 0.0570 Uiso
H2B H 0.1351 0.1348 0.1134 0.0570 Uiso
H2C H -0.1351 -0.1348 0.1134 0.0570 Uiso
C3A C -0.0652(3) -0.11158(11) 0.35515(8) 0.0373 Uani
C3B C -0.0652(3) 0.11158(11) 0.14485(8) 0.0373 Uani
C3C C 0.0652(3) -0.11158(11) 0.14485(8) 0.0373 Uani
C4A C -0.2151(3) -0.12291(12) 0.36025(10) 0.0446 Uani
C4B C -0.2151(3) 0.12291(12) 0.13975(10) 0.0446 Uani
C4C C 0.2151(3) -0.12291(12) 0.13975(10) 0.0446 Uani
H3A H -0.2845 -0.1038 0.3380 0.0540 Uiso
H3B H -0.2845 0.1038 0.1620 0.0540 Uiso
H3C H 0.2845 -0.1038 0.1620 0.0540 Uiso
C5A C -0.2588(3) -0.16321(12) 0.39914(11) 0.0477 Uani
C5B C -0.2588(3) 0.16321(12) 0.10086(11) 0.0477 Uani
C5C C 0.2588(3) -0.16321(12) 0.10086(11) 0.0477 Uani
H4A H -0.3600 -0.1712 0.4020 0.0570 Uiso
H4B H -0.3600 0.1712 0.0980 0.0570 Uiso
H4C H 0.3600 -0.1712 0.0980 0.0570 Uiso
C6A C -0.1012(2) -0.03800(10) 0.28605(8) 0.0325 Uani
C6B C -0.1012(2) 0.03800(10) 0.21395(8) 0.0325 Uani
C6C C 0.1012(2) -0.03800(10) 0.21395(8) 0.0325 Uani
H5A H -0.1645 -0.0140 0.3093 0.0390 Uiso
H5B H -0.1645 0.0140 0.1907 0.0390 Uiso
H5C H 0.1645 -0.0140 0.1907 0.0390 Uiso
H6A H -0.1636 -0.0625 0.2629 0.0390 Uiso
H6B H -0.1636 0.0625 0.2371 0.0390 Uiso
H6C H 0.1636 -0.0625 0.2371 0.0390 Uiso
C8E C 0.5487(4) 0.17077(15) 0.5000 0.0361 Uani
O1A O -0.00390(19) -0.07281(8) 0.31961(6) 0.0432 Uani
O1B O -0.00390(19) 0.07281(8) 0.18039(6) 0.0432 Uani
O1C O 0.00390(19) -0.07281(8) 0.18039(6) 0.0432 Uani
O2 O 0.3929(4) -0.04370(19) 0.38803(13) 0.1273 Uani
C9 C 0.1464(5) 0.0096(2) 0.43822(19) 0.1017 Uani
N3 N 0.1939(9) 0.0400(3) 0.5000 0.1610 Uani
C9I C 0.1464(5) 0.0096(2) 0.56178(19) 0.1017 Uani
loop_
_atom_site_aniso_label
_atom_site_aniso_U_11
_atom_site_aniso_U_22
_atom_site_aniso_U_33
_atom_site_aniso_U_23
_atom_site_aniso_U_13
_atom_site_aniso_U_12
Fe1 0.0377(4) 0.0209(3) 0.0317(3) 0.000 0.000 -0.0008(3)
S1 0.0480(7) 0.0701(8) 0.0885(8) 0.000 0.000 0.0245(6)
N1 0.0389(12) 0.0343(10) 0.0385(10) -0.0076(8) 0.0037(9) -0.0032(9)
N2 0.0408(17) 0.0279(14) 0.0445(15) 0.000 0.000 0.0047(14)
C1 0.0391(15) 0.0474(15) 0.0481(14) -0.0181(11) 0.0065(11) 0.0009(12)
C2 0.0319(14) 0.0573(16) 0.0545(15) -0.0257(13) 0.0025(11) -0.0029(12)
C3 0.0406(14) 0.0374(13) 0.0338(12) -0.0089(10) 0.0021(10) -0.0066(11)
C4 0.0367(14) 0.0515(15) 0.0457(14) -0.0197(11) 0.0050(10) -0.0015(12)
C5 0.0357(14) 0.0556(16) 0.0519(14) -0.0194(12) 0.0036(12) -0.0076(13)
C6 0.0349(13) 0.0343(12) 0.0284(11) -0.0045(9) 0.0037(9) -0.0002(11)
C7 0.036(2) 0.026(2) 0.025(2) 0.000 0.000 0.000
C8 0.039(2) 0.0367(18) 0.0325(16) 0.000 0.000 -0.0090(17)
O1 0.0370(9) 0.0484(10) 0.0441(9) -0.0222(8) 0.0033(7) -0.0036(8)
Fe1A 0.0377 0.0209 0.0317 0 0 -0.0008
Fe1C 0.0377 0.0209 0.0317 0 0 0.0008
Fe1B 0.0377 0.0209 0.0317 0 0 0.0008
S1E 0.048 0.0701 0.0885 0 0 0.0245
N1A 0.0389 0.0343 0.0385 0.0076 -0.0037 -0.0032
N1B 0.0389 0.0343 0.0385 0.0076 0.0037 0.0032
N1C 0.0389 0.0343 0.0385 -0.0076 -0.0037 0.0032
N1E 0.0389 0.0343 0.0385 0.0076 -0.0037 -0.0032
N1I 0.0389 0.0343 0.0385 0.0076 -0.0037 -0.0032
N1L 0.0389 0.0343 0.0385 -0.0076 0.0037 -0.0032
N2E 0.0408 0.0279 0.0445 0 0 0.0047
C1A 0.0391 0.0474 0.0481 0.0181 -0.0065 0.0009
C1B 0.0391 0.0474 0.0481 0.0181 0.0065 -0.0009
C1C 0.0391 0.0474 0.0481 -0.0181 -0.0065 -0.0009
C2A 0.0319 0.0573 0.0545 0.0257 -0.0025 -0.0029
C2B 0.0319 0.0573 0.0545 0.0257 0.0025 0.0029
C2C 0.0319 0.0573 0.0545 -0.0257 -0.0025 0.0029
C3A 0.0406 0.0374 0.0338 0.0089 -0.0021 -0.0066
C3B 0.0406 0.0374 0.0338 0.0089 0.0021 0.0066
C3C 0.0406 0.0374 0.0338 -0.0089 -0.0021 0.0066
C4A 0.0367 0.0515 0.0457 0.0197 -0.005 -0.0015
C4B 0.0367 0.0515 0.0457 0.0197 0.005 0.0015
C4C 0.0367 0.0515 0.0457 -0.0197 -0.005 0.0015
C5A 0.0357 0.0556 0.0519 0.0194 -0.0036 -0.0076
C5B 0.0357 0.0556 0.0519 0.0194 0.0036 0.0076
C5C 0.0357 0.0556 0.0519 -0.0194 -0.0036 0.0076
C6A 0.0349 0.0343 0.0284 0.0045 -0.0037 -0.0002
C6B 0.0349 0.0343 0.0284 0.0045 0.0037 0.0002
C6C 0.0349 0.0343 0.0284 -0.0045 -0.0037 0.0002
C8E 0.039 0.0367 0.0325 0 0 -0.009
O1A 0.037 0.0484 0.0441 0.0222 -0.0033 -0.0036
O1B 0.037 0.0484 0.0441 0.0222 0.0033 0.0036
O1C 0.037 0.0484 0.0441 -0.0222 -0.0033 0.0036
O2 0.101(2) 0.149(3) 0.132(3) 0.024(2) -0.0068(18) -0.006(2)
C9 0.113(4) 0.080(3) 0.112(3) -0.009(2) -0.014(2) 0.016(3)
N3 0.172(7) 0.084(4) 0.227(8) 0.000 0.000 0.004(5)
C9I 0.113 0.08 0.112 0.009 0.014 0.016
loop_
_geom_bond_atom_site_label_1
_geom_bond_atom_site_label_2
_geom_bond_site_symmetry_1
_geom_bond_site_symmetry_2
Fe1 N1 1_555 1_555
S1 C8 1_555 1_555
N1 C1 1_555 1_555
N2 Fe1 1_555 1_555
C1 H1 1_555 1_555
C2 C1 1_555 1_555
H2 C2 1_555 1_555
C3 C2 1_555 1_555
C4 C3 1_555 1_555
H3 C4 1_555 1_555
C5 N1 1_555 1_555
H4 C5 1_555 1_555
C6 H5 1_555 1_555
H6 C6 1_555 1_555
C7 C6 1_555 1_555
C8 N2 1_555 1_555
O1 C3 1_555 1_555
C9 N3 1_555 1_555
N3 C9I 1_555 1_555
Fe1A N1A 1_555 1_555
Fe1C N1C 1_555 1_555
Fe1B N1B 1_555 1_555
S1E C8E 1_555 1_555
N1A C1A 1_555 1_555
N1B C1B 1_555 1_555
N1C C1C 1_555 1_555
N1E Fe1 1_555 1_555
N1I Fe1 1_555 1_555
N1L Fe1 1_555 1_555
N2E Fe1 1_555 1_555
C1A H1A 1_555 1_555
C1B H1B 1_555 1_555
C1C H1C 1_555 1_555
C2A C1A 1_555 1_555
C2B C1B 1_555 1_555
C2C C1C 1_555 1_555
H2A C2A 1_555 1_555
H2B C2B 1_555 1_555
H2C C2C 1_555 1_555
C3A C2A 1_555 1_555
C3B C2B 1_555 1_555
C3C C2C 1_555 1_555
C4A C3A 1_555 1_555
C4B C3B 1_555 1_555
C4C C3C 1_555 1_555
H3A C4A 1_555 1_555
H3B C4B 1_555 1_555
H3C C4C 1_555 1_555
C5A N1A 1_555 1_555
C5B N1B 1_555 1_555
C5C N1C 1_555 1_555
H4A C5A 1_555 1_555
H4B C5B 1_555 1_555
H4C C5C 1_555 1_555
C6A C7 1_555 1_555
C6B C7 1_555 1_555
C6C C7 1_555 1_555
H5A C6A 1_555 1_555
H5B C6B 1_555 1_555
H5C C6C 1_555 1_555
H6A C6A 1_555 1_555
H6B C6B 1_555 1_555
H6C C6C 1_555 1_555
C8E N2E 1_555 1_555
O1A C3A 1_555 1_555
O1B C3B 1_555 1_555
O1C C3C 1_555 1_555
C4 C5 1_555 1_555
C6 O1 1_555 1_555
C4A C5A 1_555 1_555
C4B C5B 1_555 1_555
C4C C5C 1_555 1_555
C6A O1A 1_555 1_555
C6B O1B 1_555 1_555
C6C O1C 1_555 1_555

#END
