
#######################################################################
#
#                 Cambridge Crystallographic Data Centre
#                                CCDC 
#
#######################################################################
#
# If this CIF has been generated from an entry in the Cambridge 
# Structural Database, then it will include bibliographic, chemical, 
# crystal, experimental, refinement or atomic coordinate data resulting 
# from the CCDC's data processing and validation procedures.
#
#######################################################################

data_FUYKER
_chemical_formula_moiety         '(C26 H18 Cl2 Mn2 N10 O5)n'
_symmetry_cell_setting           monoclinic
_symmetry_space_group_name_H-M   'C 2/c'
_symmetry_Int_Tables_number      15
_space_group_name_Hall           '-C 2yc'
loop_
_symmetry_equiv_pos_site_id
_symmetry_equiv_pos_as_xyz
1 x,y,z
2 -x,y,1/2-z
3 1/2+x,1/2+y,z
4 1/2-x,1/2+y,1/2-z
5 -x,-y,-z
6 x,-y,1/2+z
7 1/2-x,1/2-y,-z
8 1/2+x,1/2-y,1/2+z
_cell_length_a                   31.609(5)
_cell_length_b                   9.8716(15)
_cell_length_c                   24.738(4)
_cell_angle_alpha                90
_cell_angle_beta                 104.669(2)
_cell_angle_gamma                90
_cell_volume                     7467.43
loop_
_atom_site_label
_atom_site_type_symbol
_atom_site_fract_x
_atom_site_fract_y
_atom_site_fract_z
_atom_site_U_iso_or_equiv
_atom_site_thermal_displace_type
Cl2 Cl 0.44691(2) 0.68175(9) 0.48442(3) 0.0461 Uani
O1 O 0.08653(7) 0.7956(2) 0.40807(10) 0.0524 Uani
H1 H 0.0775 0.8092 0.4373 0.0790 Uiso
H2 H 0.0851 0.8713 0.3914 0.0790 Uiso
O2 O -0.09846(6) 0.6155(2) 0.18492(7) 0.0340 Uani
O3 O -0.14998(6) 0.5202(2) 0.22045(7) 0.0317 Uani
O4 O 0.36216(7) 0.0983(2) 0.60421(9) 0.0438 Uani
O5 O 0.29482(7) 0.1448(2) 0.60964(9) 0.0436 Uani
Mn1 Mn 0.120025(13) 0.60878(4) 0.402903(16) 0.0281 Uani
Mn2 Mn 0.211264(12) 0.52708(4) 0.340830(15) 0.0241 Uani
Cl1 Cl 0.19351(2) 0.71309(8) 0.40111(3) 0.0379 Uani
N1 N 0.14964(7) 0.5735(3) 0.49917(9) 0.0335 Uani
N2 N 0.18427(10) 0.4638(3) 0.60588(11) 0.0547 Uani
N3 N 0.06407(7) 0.5106(2) 0.43894(9) 0.0317 Uani
N4 N 0.05513(8) 0.3809(3) 0.51059(10) 0.0418 Uani
N5 N 0.01857(8) 0.3816(3) 0.46806(10) 0.0423 Uani
H3 H -0.0049 0.3376 0.4681 0.0510 Uiso
N6 N 0.23109(7) 0.6779(2) 0.27730(9) 0.0277 Uani
N7 N 0.26108(7) 0.8680(2) 0.21180(9) 0.0291 Uani
N8 N 0.28431(7) 0.5894(2) 0.37888(8) 0.0253 Uani
N9 N 0.34059(7) 0.7163(3) 0.36539(10) 0.0362 Uani
N10 N 0.35286(7) 0.6448(2) 0.41359(9) 0.0340 Uani
H4 H 0.3786 0.6469 0.4360 0.0410 Uiso
C1 C 0.19045(10) 0.6016(3) 0.52924(12) 0.0412 Uani
H5 H 0.2077 0.6598 0.5144 0.0490 Uiso
C2 C 0.20738(11) 0.5464(4) 0.58148(14) 0.0505 Uani
H6 H 0.2360 0.5675 0.6004 0.0610 Uiso
C3 C 0.14374(11) 0.4364(4) 0.57677(13) 0.0457 Uani
H7 H 0.1265 0.3793 0.5922 0.0550 Uiso
C4 C 0.12615(9) 0.4912(3) 0.52335(11) 0.0336 Uani
C5 C 0.08135(9) 0.4607(3) 0.49125(11) 0.0333 Uani
C6 C 0.02360(9) 0.4601(3) 0.42548(11) 0.0323 Uani
C7 C -0.01119(9) 0.4866(3) 0.37486(11) 0.0315 Uani
C8 C -0.05151(10) 0.4213(4) 0.36569(12) 0.0435 Uani
H8 H -0.0565 0.3599 0.3919 0.0520 Uiso
C9 C -0.08423(10) 0.4475(4) 0.31770(12) 0.0415 Uani
H9 H -0.1110 0.4037 0.3123 0.0500 Uiso
C10 C -0.07761(8) 0.5379(3) 0.27766(11) 0.0286 Uani
C11 C -0.03800(9) 0.6056(3) 0.28829(12) 0.0371 Uani
H10 H -0.0334 0.6694 0.2627 0.0440 Uiso
C12 C -0.00501(10) 0.5807(3) 0.33616(12) 0.0408 Uani
H11 H 0.0213 0.6274 0.3422 0.0490 Uiso
C13 C -0.11141(8) 0.5598(3) 0.22352(11) 0.0262 Uani
C14 C 0.20654(9) 0.7161(3) 0.22734(11) 0.0364 Uani
H12 H 0.1788 0.6792 0.2141 0.0440 Uiso
C15 C 0.22172(9) 0.8099(3) 0.19484(12) 0.0353 Uani
H13 H 0.2039 0.8332 0.1601 0.0420 Uiso
C16 C 0.28569(9) 0.8285(3) 0.26157(11) 0.0315 Uani
H14 H 0.3132 0.8666 0.2751 0.0380 Uiso
C17 C 0.27116(9) 0.7320(3) 0.29348(10) 0.0271 Uani
C18 C 0.29923(8) 0.6809(3) 0.34609(11) 0.0277 Uani
C19 C 0.31939(9) 0.5699(3) 0.42166(11) 0.0272 Uani
C20 C 0.32282(9) 0.4786(3) 0.46969(11) 0.0274 Uani
C21 C 0.36212(9) 0.4162(3) 0.49442(13) 0.0380 Uani
H15 H 0.3872 0.4386 0.4832 0.0460 Uiso
C22 C 0.36416(9) 0.3207(3) 0.53586(13) 0.0385 Uani
H16 H 0.3906 0.2784 0.5520 0.0460 Uiso
C23 C 0.32698(9) 0.2868(3) 0.55376(11) 0.0316 Uani
C24 C 0.28842(10) 0.3573(3) 0.53164(12) 0.0374 Uani
H17 H 0.2639 0.3408 0.5450 0.0450 Uiso
C25 C 0.28629(10) 0.4525(3) 0.48941(12) 0.0367 Uani
H18 H 0.2603 0.4987 0.4744 0.0440 Uiso
C26 C 0.32834(10) 0.1648(3) 0.59347(12) 0.0364 Uani
O2A O 0.09846(6) 0.6155(2) 0.31508(7) 0.0340 Uani
O3A O 0.14998(6) 0.5202(2) 0.27955(7) 0.0317 Uani
O4F O 0.13784(7) 0.4017(2) 0.39579(9) 0.0438 Uani
O5F O 0.20518(7) 0.3552(2) 0.39036(9) 0.0436 Uani
Mn1A Mn -0.120025(13) 0.60878(4) 0.097097(16) 0.0281 Uani
Mn1F Mn 0.379975(13) -0.10878(4) 0.597097(16) 0.0281 Uani
Mn2A Mn -0.211264(12) 0.52708(4) 0.159170(15) 0.0241 Uani
Mn2C Mn 0.288736(12) 1.02708(4) 0.159170(15) 0.0241 Uani
Mn2F Mn 0.288736(12) -0.02708(4) 0.659170(15) 0.0241 Uani
N7C N 0.23892(7) 0.3680(2) 0.28820(9) 0.0291 Uani
loop_
_atom_site_aniso_label
_atom_site_aniso_U_11
_atom_site_aniso_U_22
_atom_site_aniso_U_33
_atom_site_aniso_U_23
_atom_site_aniso_U_13
_atom_site_aniso_U_12
Cl2 0.0322(4) 0.0642(6) 0.0394(4) 0.0028(4) 0.0042(3) -0.0126(4)
O1 0.0594(15) 0.0509(14) 0.0548(14) 0.0017(11) 0.0293(12) 0.0112(11)
O2 0.0299(11) 0.0476(12) 0.0223(10) 0.0032(8) 0.0025(8) -0.0065(9)
O3 0.0204(10) 0.0457(12) 0.0276(10) 0.0040(8) 0.0033(8) -0.0007(8)
O4 0.0491(14) 0.0340(12) 0.0461(13) 0.0079(9) 0.0078(11) 0.0076(10)
O5 0.0471(13) 0.0423(13) 0.0434(12) 0.0131(10) 0.0149(10) -0.0027(10)
Mn1 0.0258(2) 0.0346(2) 0.0230(2) -0.00030(17) 0.00460(17) 0.00095(17)
Mn2 0.0203(2) 0.0301(2) 0.0217(2) 0.00063(16) 0.00479(16) -0.00261(16)
Cl1 0.0311(4) 0.0422(4) 0.0422(4) -0.0124(3) 0.0128(3) -0.0080(3)
N1 0.0266(12) 0.0456(15) 0.0265(12) -0.0042(11) 0.0036(10) -0.0033(11)
N2 0.0448(17) 0.072(2) 0.0363(15) 0.0059(14) -0.0098(13) -0.0030(15)
N3 0.0256(12) 0.0414(14) 0.0255(12) 0.0041(10) 0.0018(10) -0.0032(10)
N4 0.0314(14) 0.0611(18) 0.0287(13) 0.0103(12) -0.0004(11) -0.0055(12)
N5 0.0269(13) 0.0634(18) 0.0324(13) 0.0099(12) -0.0003(11) -0.0145(12)
N6 0.0267(12) 0.0303(12) 0.0251(11) 0.0022(9) 0.0045(9) -0.0033(9)
N7 0.0313(13) 0.0306(13) 0.0246(11) 0.0024(9) 0.0054(10) -0.0009(10)
N8 0.0238(11) 0.0286(12) 0.0229(11) 0.0042(9) 0.0049(9) -0.0030(9)
N9 0.0275(13) 0.0465(15) 0.0315(12) 0.0148(11) 0.0019(10) -0.0091(11)
N10 0.0239(12) 0.0429(14) 0.0300(12) 0.0121(11) -0.0027(10) -0.0068(10)
C1 0.0316(17) 0.056(2) 0.0335(16) -0.0086(14) 0.0037(13) -0.0061(14)
C2 0.0294(17) 0.075(2) 0.0400(18) -0.0083(17) -0.0042(14) -0.0041(16)
C3 0.0413(19) 0.057(2) 0.0330(16) 0.0067(15) -0.0015(14) -0.0050(15)
C4 0.0260(15) 0.0453(18) 0.0255(14) -0.0029(12) -0.0010(12) 0.0001(12)
C5 0.0275(15) 0.0454(18) 0.0246(14) 0.0010(12) 0.0023(12) -0.0049(13)
C6 0.0277(15) 0.0424(17) 0.0256(14) 0.0032(12) 0.0048(12) -0.0048(12)
C7 0.0223(14) 0.0455(17) 0.0247(14) -0.0013(12) 0.0022(11) -0.0048(12)
C8 0.0331(17) 0.060(2) 0.0323(16) 0.0118(15) -0.0009(13) -0.0154(15)
C9 0.0241(15) 0.064(2) 0.0322(16) 0.0115(15) -0.0007(12) -0.0111(14)
C10 0.0205(13) 0.0402(16) 0.0247(13) -0.0017(12) 0.0049(11) -0.0011(11)
C11 0.0298(16) 0.0512(19) 0.0284(15) 0.0091(13) 0.0040(12) -0.0082(13)
C12 0.0283(16) 0.058(2) 0.0320(16) 0.0074(14) 0.0001(13) -0.0117(14)
C13 0.0205(13) 0.0327(15) 0.0249(13) -0.0037(11) 0.0048(11) -0.0002(11)
C14 0.0284(15) 0.0441(18) 0.0312(15) 0.0052(13) -0.0028(12) -0.0076(13)
C15 0.0325(16) 0.0413(17) 0.0280(14) 0.0081(12) -0.0001(12) -0.0040(13)
C16 0.0236(14) 0.0362(16) 0.0319(15) 0.0066(12) 0.0016(12) -0.0052(12)
C17 0.0283(14) 0.0312(15) 0.0210(13) 0.0010(11) 0.0047(11) -0.0007(11)
C18 0.0258(14) 0.0305(15) 0.0264(13) 0.0050(11) 0.0056(11) -0.0029(11)
C19 0.0261(14) 0.0307(14) 0.0238(13) 0.0042(11) 0.0044(11) -0.0020(11)
C20 0.0304(15) 0.0252(14) 0.0253(13) 0.0039(11) 0.0049(11) -0.0035(11)
C21 0.0246(15) 0.0435(18) 0.0462(18) 0.0132(14) 0.0095(13) -0.0022(13)
C22 0.0261(15) 0.0422(18) 0.0449(17) 0.0150(14) 0.0046(13) 0.0041(12)
C23 0.0322(15) 0.0323(15) 0.0295(14) 0.0022(12) 0.0064(12) 0.0003(12)
C24 0.0312(16) 0.0435(18) 0.0404(17) 0.0096(14) 0.0143(13) 0.0030(13)
C25 0.0312(16) 0.0399(17) 0.0385(16) 0.0088(13) 0.0078(13) 0.0066(13)
C26 0.0278(16) 0.0524(19) 0.0272(15) -0.0096(13) 0.0037(12) 0.0006(14)
O2A 0.0299 0.0476 0.0223 -0.0032 0.0025 0.0065
O3A 0.0204 0.0457 0.0276 -0.004 0.0033 0.0007
O4F 0.0491 0.034 0.0461 0.0079 0.0078 0.0076
O5F 0.0471 0.0423 0.0434 0.0131 0.0149 -0.0027
Mn1A 0.0258 0.0346 0.023 0.0003 0.0046 -0.00095
Mn1F 0.0258 0.0346 0.023 -0.0003 0.0046 0.00095
Mn2A 0.0203 0.0301 0.0217 -0.00063 0.00479 0.00261
Mn2C 0.0203 0.0301 0.0217 -0.00063 0.00479 0.00261
Mn2F 0.0203 0.0301 0.0217 0.00063 0.00479 -0.00261
N7C 0.0313 0.0306 0.0246 -0.0024 0.0054 0.0009
loop_
_geom_bond_atom_site_label_1
_geom_bond_atom_site_label_2
_geom_bond_site_symmetry_1
_geom_bond_site_symmetry_2
O1 H1 1_555 1_555
H2 O1 1_555 1_555
O2 C13 1_555 1_555
O3 C13 1_555 1_555
O4 C26 1_555 1_555
O5 C26 1_555 1_555
Mn1 O1 1_555 1_555
Mn2 Cl1 1_555 1_555
Cl1 Mn1 1_555 1_555
N1 Mn1 1_555 1_555
N2 C2 1_555 1_555
N3 Mn1 1_555 1_555
N4 N5 1_555 1_555
N5 H3 1_555 1_555
N6 Mn2 1_555 1_555
N7 C15 1_555 1_555
N8 Mn2 1_555 1_555
N9 N10 1_555 1_555
N10 H4 1_555 1_555
C1 N1 1_555 1_555
H5 C1 1_555 1_555
C2 C1 1_555 1_555
H6 C2 1_555 1_555
C3 N2 1_555 1_555
H7 C3 1_555 1_555
C4 N1 1_555 1_555
C5 N3 1_555 1_555
C6 N3 1_555 1_555
C7 C6 1_555 1_555
C8 C7 1_555 1_555
H8 C8 1_555 1_555
C9 C8 1_555 1_555
H9 C9 1_555 1_555
C10 C9 1_555 1_555
C11 C10 1_555 1_555
H10 C11 1_555 1_555
C12 C7 1_555 1_555
H11 C12 1_555 1_555
C13 C10 1_555 1_555
C14 N6 1_555 1_555
H12 C14 1_555 1_555
C15 C14 1_555 1_555
H13 C15 1_555 1_555
C16 N7 1_555 1_555
H14 C16 1_555 1_555
C17 N6 1_555 1_555
C18 N8 1_555 1_555
C19 N8 1_555 1_555
C20 C19 1_555 1_555
C21 C20 1_555 1_555
H15 C21 1_555 1_555
C22 C21 1_555 1_555
H16 C22 1_555 1_555
C23 C22 1_555 1_555
C24 C23 1_555 1_555
H17 C24 1_555 1_555
C25 C20 1_555 1_555
H18 C25 1_555 1_555
C26 C23 1_555 1_555
O2A Mn1 1_555 1_555
O3A Mn2 1_555 1_555
O4F Mn1 1_555 1_555
O5F Mn2 1_555 1_555
Mn1A O2 1_555 1_555
Mn1F O4 1_555 1_555
Mn2A O3 1_555 1_555
Mn2C N7 1_555 1_555
Mn2F O5 1_555 1_555
N7C Mn2 1_555 1_555
N4 C5 1_555 1_555
N5 C6 1_555 1_555
N9 C18 1_555 1_555
N10 C19 1_555 1_555
C3 C4 1_555 1_555
C4 C5 1_555 1_555
C11 C12 1_555 1_555
C16 C17 1_555 1_555
C17 C18 1_555 1_555
C24 C25 1_555 1_555

#END
