
#######################################################################
#
#                 Cambridge Crystallographic Data Centre
#                                CCDC 
#
#######################################################################
#
# If this CIF has been generated from an entry in the Cambridge 
# Structural Database, then it will include bibliographic, chemical, 
# crystal, experimental, refinement or atomic coordinate data resulting 
# from the CCDC's data processing and validation procedures.
#
#######################################################################

data_IDUTUW
_chemical_formula_moiety         '(C2 H6 Br4 Cd2 Cs1 O7 1-)n'
_symmetry_cell_setting           orthorhombic
_symmetry_space_group_name_H-M   'C m c m'
_symmetry_Int_Tables_number      63
_space_group_name_Hall           '-C 2c 2'
loop_
_symmetry_equiv_pos_site_id
_symmetry_equiv_pos_as_xyz
1 x,y,z
2 1/2+x,1/2+y,z
3 x,y,1/2-z
4 x,-y,1/2+z
5 -x,y,z
6 1/2+x,1/2+y,1/2-z
7 1/2+x,1/2-y,1/2+z
8 1/2-x,1/2+y,z
9 -x,-y,-z
10 1/2-x,1/2-y,-z
11 -x,-y,1/2+z
12 -x,y,1/2-z
13 x,-y,-z
14 1/2-x,1/2-y,1/2+z
15 1/2-x,1/2+y,1/2-z
16 1/2+x,1/2-y,-z
_cell_length_a                   23.6251(14)
_cell_length_b                   10.2528(6)
_cell_length_c                   7.8199(5)
_cell_angle_alpha                90
_cell_angle_beta                 90
_cell_angle_gamma                90
_cell_volume                     1894.16
loop_
_atom_site_label
_atom_site_type_symbol
_atom_site_fract_x
_atom_site_fract_y
_atom_site_fract_z
Cs1 Cs 0.31159(4) 0.31699(9) 0.2500
Cd1 Cd 0.12428(4) 0.40048(9) 0.2500
Br1 Br 0.19264(5) 0.5000 0.0000
Br2 Br 0.16916(7) 0.16625(14) 0.2500
C1 C 0.0000 0.3538(11) 0.1500(15)
O1 O 0.0829(4) 0.6138(8) 0.2500
O2 O 0.0470(2) 0.3535(6) 0.0772(7)
C1B C -0.0000 0.3538(11) 0.3500(15)
O2B O 0.0470(2) 0.3535(6) 0.4228(7)
O2K O -0.0470(2) 0.3535(6) 0.4228(7)
O2D O -0.0470(2) 0.3535(6) 0.0772(7)
Br1B Br 0.19264(5) 0.5000 0.5000
Cd1C Cd 0.12428(4) 0.59952(9) -0.2500
Cd1D Cd -0.12428(4) 0.40048(9) 0.2500
Cd1C_2 Cd 0.12428(4) 0.59952(9) 0.7500
Br1B_2 Br 0.19264(5) 0.5000 -0.5000
Br2C Br 0.16916(7) 0.83375(14) -0.2500
O1C O 0.0829(4) 0.3862(8) -0.2500
O2C O 0.0470(2) 0.6465(6) -0.4228(7)
O2L O 0.0470(2) 0.6465(6) -0.0772(7)
O3 O 0.0000 0.0000 0.0000
loop_
_geom_bond_atom_site_label_1
_geom_bond_atom_site_label_2
_geom_bond_site_symmetry_1
_geom_bond_site_symmetry_2
Cd1 Br1 1_555 1_555
Br1 Cd1C 1_555 1_555
Br2 Cd1 1_555 1_555
C1 O2 1_555 1_555
O1 Cd1 1_555 1_555
O2 Cd1 1_555 1_555
C1B C1 1_555 1_555
O2B Cd1 1_555 1_555
O2K C1B 1_555 1_555
O2D C1 1_555 1_555
Br1B Cd1 1_555 1_555
Cd1C Br1B_2 1_555 1_555
Cd1D O2K 1_555 1_555
Cd1C_2 Br1B 1_555 1_555
Br2C Cd1C 1_555 1_555
O1C Cd1C 1_555 1_555
O2C Cd1C 1_555 1_555
O2L Cd1C 1_555 1_555
C1B O2B 1_555 1_555
O2D Cd1D 1_555 1_555

#END
