
#######################################################################
#
#                 Cambridge Crystallographic Data Centre
#                                CCDC 
#
#######################################################################
#
# If this CIF has been generated from an entry in the Cambridge 
# Structural Database, then it will include bibliographic, chemical, 
# crystal, experimental, refinement or atomic coordinate data resulting 
# from the CCDC's data processing and validation procedures.
#
#######################################################################

data_BABRII
_chemical_formula_moiety         'C192 H105 O73 Zn38'
_symmetry_cell_setting           trigonal
_symmetry_space_group_name_H-M   'P -3 1 c'
_symmetry_Int_Tables_number      163
_space_group_name_Hall           '-P 3 2c'
loop_
_symmetry_equiv_pos_site_id
_symmetry_equiv_pos_as_xyz
1 x,y,z
2 -y,x-y,z
3 -x+y,-x,z
4 -y,-x,1/2-z
5 -x+y,y,1/2-z
6 x,x-y,1/2-z
7 -x,-y,-z
8 y,-x+y,-z
9 x-y,x,-z
10 y,x,1/2+z
11 x-y,-y,1/2+z
12 -x,-x+y,1/2+z
_cell_length_a                   37.166(5)
_cell_length_b                   37.166(5)
_cell_length_c                   30.111(6)
_cell_angle_alpha                90
_cell_angle_beta                 90
_cell_angle_gamma                120
_cell_volume                     36020.3
loop_
_atom_site_label
_atom_site_type_symbol
_atom_site_fract_x
_atom_site_fract_y
_atom_site_fract_z
Zn1 Zn 0.3333 0.6667 0.30954(6)
Zn2 Zn 0.34108(4) 0.62190(4) 0.22222(4)
O1 O 0.3333 0.6667 0.2500
O2 O 0.16620(5) 0.33240(10) 0.7500
C1 C 0.30094(17) 0.43491(16) 0.40189(17)
C2 C 0.28733(14) 0.42568(15) 0.44548(16)
H1 H 0.2829 0.4445 0.4615
C3 C 0.28018(16) 0.38908(16) 0.46585(17)
C4 C 0.28612(18) 0.36071(17) 0.44097(17)
H2 H 0.2798 0.3355 0.4538
C5 C 0.30124(19) 0.36900(17) 0.39740(17)
C6 C 0.30765(18) 0.40616(16) 0.37904(17)
H3 H 0.3169 0.4121 0.3498
C7 C 0.31025(18) 0.47427(17) 0.38141(18)
C8 C 0.32112(19) 0.54615(18) 0.33852(19)
C9 C 0.30909(18) 0.33949(17) 0.37490(18)
C10 C 0.32141(18) 0.28113(17) 0.3273(2)
C11 C 0.26423(18) 0.37853(17) 0.51342(18)
C12 C 0.23114(18) 0.35821(17) 0.59918(18)
C13 C 0.3271(2) 0.5846(2) 0.3164(2)
C14 C 0.3250(2) 0.24850(18) 0.3030(2)
C15 C 0.2148(2) 0.34928(19) 0.64457(19)
C16 C 0.35485(10) 0.64515(10) 0.7500
H4 H 0.3693 0.6307 0.7500
C17 C 0.31142(10) 0.6228(2) 0.7500
C18 C 0.28829(11) 0.5766(2) 0.7500
C19 C 0.24502(11) 0.4900(2) 0.7500
C20 C 0.22187(10) 0.4437(2) 0.7500
C21 C 0.11085(14) 0.2217(3) 0.7500
O3 O 0.3276(3) 0.6154(2) 0.3357(2)
O4 O 0.3393(3) 0.5899(2) 0.2753(2)
C22 C 0.3077(3) 0.5063(3) 0.4009(4)
H5 H 0.3015 0.5034 0.4310
C23 C 0.3131(3) 0.5422(3) 0.3815(3)
H6 H 0.3112 0.5625 0.3978
C24 C 0.3254(4) 0.5169(3) 0.3159(4)
H7 H 0.3317 0.5204 0.2858
C25 C 0.3204(3) 0.4822(3) 0.3376(3)
H8 H 0.3241 0.4630 0.3215
Zn3 Zn 0.22478(2) 0.36642(2) 0.73988(2)
Zn4 Zn 0.13988(3) 0.29589(3) 0.69839(3)
O5 O 0.35368(17) 0.26043(15) 0.27621(18)
O6 O 0.30526(19) 0.21089(17) 0.31923(19)
O7 O 0.23756(18) 0.36993(18) 0.67696(16)
O8 O 0.18032(19) 0.31662(18) 0.65017(18)
O9 O 0.2426(2) 0.4255(2) 0.7539(2)
O10 O 0.1141(3) 0.23834(18) 0.71263(18)
C26 C 0.3388(2) 0.3504(2) 0.3439(2)
H9 H 0.3557 0.3785 0.3374
C27 C 0.3456(2) 0.3218(2) 0.3210(2)
H10 H 0.3674 0.3313 0.3008
C28 C 0.2915(3) 0.2673(3) 0.3609(3)
H11 H 0.2758 0.2393 0.3682
C29 C 0.2860(3) 0.2974(2) 0.3833(3)
H12 H 0.2656 0.2885 0.4051
C30 C 0.2312(2) 0.3387(2) 0.5243(2)
H13 H 0.2198 0.3187 0.5021
C31 C 0.2153(3) 0.3285(2) 0.5669(2)
H14 H 0.1941 0.3018 0.5735
C32 C 0.2654(3) 0.3972(2) 0.5911(2)
H15 H 0.2779 0.4161 0.6142
C33 C 0.2807(3) 0.4074(3) 0.5478(2)
H16 H 0.3023 0.4341 0.5418
C34 C 0.3081(3) 0.5536(3) 0.7566(3)
H17 H 0.3367 0.5678 0.7611
C35 C 0.2871(2) 0.5110(3) 0.7569(3)
H18 H 0.3012 0.4965 0.7617
C16A C 0.35485(10) 0.70970(14) 0.7500
H4A H 0.3693 0.7386 0.7500
C17A C 0.3772(2) 0.68862(22) 0.7500
C18A C 0.4234(2) 0.71169(23) 0.7500
C19A C 0.5100(2) 0.75502(23) 0.7500
C20A C 0.5563(2) 0.77817(22) 0.7500
O9A O 0.5745(2) 0.8171(3) 0.7539(2)
C34A C 0.4464(3) 0.7545(4) 0.7566(3)
H17A H 0.4322 0.7689 0.7611
C35A C 0.4890(3) 0.7761(4) 0.7569(3)
H18A H 0.5035 0.8047 0.7617
C16B C 0.29030(14) 0.64515(10) 0.7500
H4B H 0.2614 0.6307 0.7500
C17B C 0.31138(22) 0.68858(10) 0.7500
C18B C 0.28831(23) 0.71171(11) 0.7500
C19B C 0.24498(23) 0.75498(11) 0.7500
C20B C 0.22183(22) 0.77813(10) 0.7500
O9B O 0.1829(3) 0.7574(2) 0.7539(2)
C34B C 0.2455(4) 0.6919(3) 0.7566(3)
H17B H 0.2311 0.6633 0.7611
C35B C 0.2239(4) 0.7129(2) 0.7569(3)
H18B H 0.1953 0.6988 0.7617
O9C O 0.5745(2) 0.7574(2) 0.7461(2)
C34C C 0.4464(3) 0.6919(3) 0.7434(3)
H17C H 0.4322 0.6633 0.7389
C35C C 0.4890(3) 0.7129(2) 0.7431(3)
H18C H 0.5035 0.6988 0.7383
O9D O 0.1829(3) 0.4255(2) 0.7461(2)
C34D C 0.2455(4) 0.5536(3) 0.7434(3)
H17D H 0.2311 0.5678 0.7389
C35D C 0.2239(4) 0.5110(3) 0.7431(3)
H18D H 0.1953 0.4965 0.7383
O9E O 0.2426(2) 0.8171(3) 0.7461(2)
C34E C 0.3081(3) 0.7545(4) 0.7434(3)
H17E H 0.3367 0.7689 0.7389
C35E C 0.2871(2) 0.7761(4) 0.7431(3)
H18E H 0.3012 0.8047 0.7383
O10D O 0.12424(35) 0.23834(18) 0.78737(18)
Zn2A Zn 0.37810(4) 0.71918(6) 0.22222(4)
O2A O 0.66760(10) 0.83380(11) 0.7500
C1A C 0.56509(16) 0.86603(23) 0.40189(17)
C2A C 0.57432(15) 0.86165(21) 0.44548(16)
H1A H 0.5555 0.8384 0.4615
C3A C 0.61092(16) 0.89110(23) 0.46585(17)
C4A C 0.63929(17) 0.92541(25) 0.44097(17)
H2A H 0.6645 0.9443 0.4538
C5A C 0.63100(17) 0.93224(25) 0.39740(17)
C6A C 0.59384(16) 0.90149(24) 0.37904(17)
H3A H 0.5879 0.9048 0.3498
C7A C 0.52573(17) 0.83598(25) 0.38141(18)
C8A C 0.45385(18) 0.77497(26) 0.33852(19)
C9A C 0.66051(17) 0.96960(25) 0.37490(18)
C10A C 0.71887(17) 1.04028(25) 0.3273(2)
C11A C 0.62147(17) 0.88570(25) 0.51342(18)
C12A C 0.64179(17) 0.87293(25) 0.59918(18)
C13A C 0.4154(2) 0.7425(3) 0.3164(2)
C14A C 0.75150(18) 1.07650(27) 0.3030(2)
C15A C 0.65072(19) 0.86552(28) 0.64457(19)
C21A C 0.7783(3) 0.88915(33) 0.7500
O3A O 0.3846(2) 0.7122(4) 0.3357(2)
O4A O 0.4101(2) 0.7494(4) 0.2753(2)
C22A C 0.4937(3) 0.8014(4) 0.4009(4)
H5A H 0.4966 0.7981 0.4310
C23A C 0.4578(3) 0.7709(4) 0.3815(3)
H6A H 0.4375 0.7487 0.3978
C24A C 0.4831(3) 0.8085(5) 0.3159(4)
H7A H 0.4796 0.8113 0.2858
C25A C 0.5178(3) 0.8382(4) 0.3376(3)
H8A H 0.5370 0.8611 0.3215
Zn3A Zn 0.63358(2) 0.85836(3) 0.73988(2)
Zn4A Zn 0.70411(3) 0.84399(4) 0.69839(3)
O5A O 0.73957(15) 1.09325(23) 0.27621(18)
O6A O 0.78911(17) 1.09437(25) 0.31923(19)
O7A O 0.63007(18) 0.86763(25) 0.67696(16)
O8A O 0.68338(18) 0.86370(26) 0.65017(18)
O10A O 0.76166(18) 0.87576(35) 0.71263(18)
C26A C 0.6496(2) 0.9884(3) 0.3439(2)
H9A H 0.6215 0.9772 0.3374
C27A C 0.6782(2) 1.0238(3) 0.3210(2)
H10A H 0.6687 1.0361 0.3008
C28A C 0.7327(3) 1.0242(4) 0.3609(3)
H11A H 0.7607 1.0365 0.3682
C29A C 0.7026(2) 0.9886(4) 0.3833(3)
H12A H 0.7115 0.9771 0.4051
C30A C 0.6613(2) 0.8925(3) 0.5243(2)
H13A H 0.6813 0.9011 0.5021
C31A C 0.6715(2) 0.8868(4) 0.5669(2)
H14A H 0.6982 0.8923 0.5735
C32A C 0.6028(2) 0.8682(4) 0.5911(2)
H15A H 0.5839 0.8618 0.6142
C33A C 0.5926(3) 0.8733(4) 0.5478(2)
H16A H 0.5659 0.8682 0.5418
O10C O 0.76166(18) 0.8859(3) 0.78737(18)
Zn2B Zn 0.28082(6) 0.65892(4) 0.22222(4)
O2B O 0.16620(11) 0.83380(5) 0.7500
C1B C 0.13397(23) 0.69906(17) 0.40189(17)
C2B C 0.13835(21) 0.71267(14) 0.44548(16)
H1B H 0.1616 0.7171 0.4615
C3B C 0.10890(23) 0.71982(16) 0.46585(17)
C4B C 0.07459(25) 0.71388(18) 0.44097(17)
H2B H 0.0557 0.7202 0.4538
C5B C 0.06776(25) 0.69876(19) 0.39740(17)
C6B C 0.09851(24) 0.69235(18) 0.37904(17)
H3B H 0.0952 0.6831 0.3498
C7B C 0.16402(25) 0.68975(18) 0.38141(18)
C8B C 0.22503(26) 0.67888(19) 0.33852(19)
C9B C 0.03040(25) 0.69091(18) 0.37490(18)
C10B C -0.04028(25) 0.67859(18) 0.3273(2)
C11B C 0.11430(25) 0.73577(18) 0.51342(18)
C12B C 0.12707(25) 0.76886(18) 0.59918(18)
C13B C 0.2575(3) 0.6729(2) 0.3164(2)
C14B C -0.07650(27) 0.6750(2) 0.3030(2)
C15B C 0.13448(28) 0.7852(2) 0.64457(19)
C21B C 0.11085(33) 0.88915(14) 0.7500
O3B O 0.2878(4) 0.6724(3) 0.3357(2)
O4B O 0.2506(4) 0.6607(3) 0.2753(2)
C22B C 0.1986(4) 0.6923(3) 0.4009(4)
H5B H 0.2019 0.6985 0.4310
C23B C 0.2291(4) 0.6869(3) 0.3815(3)
H6B H 0.2513 0.6888 0.3978
C24B C 0.1915(5) 0.6746(4) 0.3159(4)
H7B H 0.1887 0.6683 0.2858
C25B C 0.1618(4) 0.6796(3) 0.3376(3)
H8B H 0.1389 0.6759 0.3215
Zn3B Zn 0.14164(3) 0.77522(2) 0.73988(2)
Zn4B Zn 0.15601(4) 0.86012(3) 0.69839(3)
O5B O -0.09325(23) 0.64632(17) 0.27621(18)
O6B O -0.09437(25) 0.69474(19) 0.31923(19)
O7B O 0.13237(25) 0.76244(18) 0.67696(16)
O8B O 0.13630(26) 0.81968(19) 0.65017(18)
O10B O 0.12424(35) 0.8859(3) 0.71263(18)
C26B C 0.0116(3) 0.6612(2) 0.3439(2)
H9B H 0.0228 0.6443 0.3374
C27B C -0.0238(3) 0.6544(2) 0.3210(2)
H10B H -0.0361 0.6326 0.3008
C28B C -0.0242(4) 0.7085(3) 0.3609(3)
H11B H -0.0365 0.7242 0.3682
C29B C 0.0114(4) 0.7140(3) 0.3833(3)
H12B H 0.0229 0.7344 0.4051
C30B C 0.1075(3) 0.7688(2) 0.5243(2)
H13B H 0.0989 0.7802 0.5021
C31B C 0.1132(4) 0.7847(3) 0.5669(2)
H14B H 0.1077 0.8059 0.5735
C32B C 0.1318(4) 0.7346(3) 0.5911(2)
H15B H 0.1382 0.7221 0.6142
C33B C 0.1267(4) 0.7193(3) 0.5478(2)
H16B H 0.1318 0.6977 0.5418
O10E O 0.1141(3) 0.87576(35) 0.78737(18)
Zn1C Zn 0.3333 0.6667 0.19046(6)
Zn2C Zn 0.37810(4) 0.65892(4) 0.27778(4)
C1C C 0.56509(16) 0.69906(17) 0.09811(17)
C2C C 0.57432(15) 0.71267(14) 0.05452(16)
H1C H 0.5555 0.7171 0.0385
C3C C 0.61092(16) 0.71982(16) 0.03415(17)
C4C C 0.63929(17) 0.71388(18) 0.05903(17)
H2C H 0.6645 0.7202 0.0462
C5C C 0.63100(17) 0.69876(19) 0.10260(17)
C6C C 0.59384(16) 0.69235(18) 0.12096(17)
H3C H 0.5879 0.6831 0.1502
C7C C 0.52573(17) 0.68975(18) 0.11859(18)
C8C C 0.45385(18) 0.67888(19) 0.16148(19)
C9C C 0.66051(17) 0.69091(18) 0.12510(18)
C10C C 0.71887(17) 0.67859(18) 0.1727(2)
C11C C 0.62147(17) 0.73577(18) -0.01342(18)
C12C C 0.64179(17) 0.76886(18) -0.09918(18)
C13C C 0.4154(2) 0.6729(2) 0.1836(2)
C14C C 0.75150(18) 0.6750(2) 0.1970(2)
C15C C 0.65072(19) 0.7852(2) -0.14457(19)
O3C O 0.3846(2) 0.6724(3) 0.1643(2)
O4C O 0.4101(2) 0.6607(3) 0.2247(2)
C22C C 0.4937(3) 0.6923(3) 0.0991(4)
H5C H 0.4966 0.6985 0.0690
C23C C 0.4578(3) 0.6869(3) 0.1185(3)
H6C H 0.4375 0.6888 0.1022
C24C C 0.4831(3) 0.6746(4) 0.1841(4)
H7C H 0.4796 0.6683 0.2142
C25C C 0.5178(3) 0.6796(3) 0.1624(3)
H8C H 0.5370 0.6759 0.1785
Zn3C Zn 0.63358(2) 0.77522(2) -0.23988(2)
Zn4C Zn 0.70411(3) 0.86012(3) -0.19839(3)
O5C O 0.73957(15) 0.64632(17) 0.22379(18)
O6C O 0.78911(17) 0.69474(19) 0.18077(19)
O7C O 0.63007(18) 0.76244(18) -0.17696(16)
O8C O 0.68338(18) 0.81968(19) -0.15017(18)
C26C C 0.6496(2) 0.6612(2) 0.1561(2)
H9C H 0.6215 0.6443 0.1626
C27C C 0.6782(2) 0.6544(2) 0.1790(2)
H10C H 0.6687 0.6326 0.1992
C28C C 0.7327(3) 0.7085(3) 0.1391(3)
H11C H 0.7607 0.7242 0.1318
C29C C 0.7026(2) 0.7140(3) 0.1167(3)
H12C H 0.7115 0.7344 0.0949
C30C C 0.6613(2) 0.7688(2) -0.0243(2)
H13C H 0.6813 0.7802 -0.0021
C31C C 0.6715(2) 0.7847(3) -0.0669(2)
H14C H 0.6982 0.8059 -0.0735
C32C C 0.6028(2) 0.7346(3) -0.0911(2)
H15C H 0.5839 0.7221 -0.1142
C33C C 0.5926(3) 0.7193(3) -0.0478(2)
H16C H 0.5659 0.6977 -0.0418
Zn2D Zn 0.28082(6) 0.62190(4) 0.27778(4)
C1D C 0.13397(23) 0.43491(16) 0.09811(17)
C2D C 0.13835(21) 0.42568(15) 0.05452(16)
H1D H 0.1616 0.4445 0.0385
C3D C 0.10890(23) 0.38908(16) 0.03415(17)
C4D C 0.07459(25) 0.36071(17) 0.05903(17)
H2D H 0.0557 0.3355 0.0462
C5D C 0.06776(25) 0.36900(17) 0.10260(17)
C6D C 0.09851(24) 0.40616(16) 0.12096(17)
H3D H 0.0952 0.4121 0.1502
C7D C 0.16402(25) 0.47427(17) 0.11859(18)
C8D C 0.22503(26) 0.54615(18) 0.16148(19)
C9D C 0.03040(25) 0.33949(17) 0.12510(18)
C10D C -0.04028(25) 0.28113(17) 0.1727(2)
C11D C 0.11430(25) 0.37853(17) -0.01342(18)
C12D C 0.12707(25) 0.35821(17) -0.09918(18)
C13D C 0.2575(3) 0.5846(2) 0.1836(2)
C14D C -0.07650(27) 0.24850(18) 0.1970(2)
C15D C 0.13448(28) 0.34928(19) -0.14457(19)
O3D O 0.2878(4) 0.6154(2) 0.1643(2)
O4D O 0.2506(4) 0.5899(2) 0.2247(2)
C22D C 0.1986(4) 0.5063(3) 0.0991(4)
H5D H 0.2019 0.5034 0.0690
C23D C 0.2291(4) 0.5422(3) 0.1185(3)
H6D H 0.2513 0.5625 0.1022
C24D C 0.1915(5) 0.5169(3) 0.1841(4)
H7D H 0.1887 0.5204 0.2142
C25D C 0.1618(4) 0.4822(3) 0.1624(3)
H8D H 0.1389 0.4630 0.1785
Zn3D Zn 0.14164(3) 0.36642(2) -0.23988(2)
Zn4D Zn 0.15601(4) 0.29589(3) -0.19839(3)
O5D O -0.09325(23) 0.26043(15) 0.22379(18)
O6D O -0.09437(25) 0.21089(17) 0.18077(19)
O7D O 0.13237(25) 0.36993(18) -0.17696(16)
O8D O 0.13630(26) 0.31662(18) -0.15017(18)
C26D C 0.0116(3) 0.3504(2) 0.1561(2)
H9D H 0.0228 0.3785 0.1626
C27D C -0.0238(3) 0.3218(2) 0.1790(2)
H10D H -0.0361 0.3313 0.1992
C28D C -0.0242(4) 0.2673(3) 0.1391(3)
H11D H -0.0365 0.2393 0.1318
C29D C 0.0114(4) 0.2974(2) 0.1167(3)
H12D H 0.0229 0.2885 0.0949
C30D C 0.1075(3) 0.3387(2) -0.0243(2)
H13D H 0.0989 0.3187 -0.0021
C31D C 0.1132(4) 0.3285(2) -0.0669(2)
H14D H 0.1077 0.3018 -0.0735
C32D C 0.1318(4) 0.3972(2) -0.0911(2)
H15D H 0.1382 0.4161 -0.1142
C33D C 0.1267(4) 0.4074(3) -0.0478(2)
H16D H 0.1318 0.4341 -0.0418
Zn2E Zn 0.34108(4) 0.71918(6) 0.27778(4)
C1E C 0.30094(17) 0.86603(23) 0.09811(17)
C2E C 0.28733(14) 0.86165(21) 0.05452(16)
H1E H 0.2829 0.8384 0.0385
C3E C 0.28018(16) 0.89110(23) 0.03415(17)
C4E C 0.28612(18) 0.92541(25) 0.05903(17)
H2E H 0.2798 0.9443 0.0462
C5E C 0.30124(19) 0.93224(25) 0.10260(17)
C6E C 0.30765(18) 0.90149(24) 0.12096(17)
H3E H 0.3169 0.9048 0.1502
C7E C 0.31025(18) 0.83598(25) 0.11859(18)
C8E C 0.32112(19) 0.77497(26) 0.16148(19)
C9E C 0.30909(18) 0.96960(25) 0.12510(18)
C10E C 0.32141(18) 1.04028(25) 0.1727(2)
C11E C 0.26423(18) 0.88570(25) -0.01342(18)
C12E C 0.23114(18) 0.87293(25) -0.09918(18)
C13E C 0.3271(2) 0.7425(3) 0.1836(2)
C14E C 0.3250(2) 1.07650(27) 0.1970(2)
C15E C 0.2148(2) 0.86552(28) -0.14457(19)
O3E O 0.3276(3) 0.7122(4) 0.1643(2)
O4E O 0.3393(3) 0.7494(4) 0.2247(2)
C22E C 0.3077(3) 0.8014(4) 0.0991(4)
H5E H 0.3015 0.7981 0.0690
C23E C 0.3131(3) 0.7709(4) 0.1185(3)
H6E H 0.3112 0.7487 0.1022
C24E C 0.3254(4) 0.8085(5) 0.1841(4)
H7E H 0.3317 0.8113 0.2142
C25E C 0.3204(3) 0.8382(4) 0.1624(3)
H8E H 0.3241 0.8611 0.1785
Zn3E Zn 0.22478(2) 0.85836(3) -0.23988(2)
Zn4E Zn 0.13988(3) 0.84399(4) -0.19839(3)
O5E O 0.35368(17) 1.09325(23) 0.22379(18)
O6E O 0.30526(19) 1.09437(25) 0.18077(19)
O7E O 0.23756(18) 0.86763(25) -0.17696(16)
O8E O 0.18032(19) 0.86370(26) -0.15017(18)
C26E C 0.3388(2) 0.9884(3) 0.1561(2)
H9E H 0.3557 0.9772 0.1626
C27E C 0.3456(2) 1.0238(3) 0.1790(2)
H10E H 0.3674 1.0361 0.1992
C28E C 0.2915(3) 1.0242(4) 0.1391(3)
H11E H 0.2758 1.0365 0.1318
C29E C 0.2860(3) 0.9886(4) 0.1167(3)
H12E H 0.2656 0.9771 0.0949
C30E C 0.2312(2) 0.8925(3) -0.0243(2)
H13E H 0.2198 0.9011 -0.0021
C31E C 0.2153(3) 0.8868(4) -0.0669(2)
H14E H 0.1941 0.8923 -0.0735
C32E C 0.2654(3) 0.8682(4) -0.0911(2)
H15E H 0.2779 0.8618 -0.1142
C33E C 0.2807(3) 0.8733(4) -0.0478(2)
H16E H 0.3023 0.8682 -0.0418
O2_2 O 0.16620(5) 0.33240(10) -0.2500
O2A_2 O 0.66760(10) 0.83380(11) -0.2500
O2B_2 O 0.16620(11) 0.83380(5) -0.2500
Zn3C_2 Zn 0.63358(2) 0.77522(2) 0.76012(2)
Zn3D_2 Zn 0.14164(3) 0.36642(2) 0.76012(2)
Zn3E_2 Zn 0.22478(2) 0.85836(3) 0.76012(2)
Zn3F Zn 0.77522(2) 0.63358(2) 0.26012(2)
Zn3G Zn 0.36642(2) 1.14164(3) 0.26012(2)
Zn3H Zn -0.14164(3) 0.22478(2) 0.26012(2)
Zn3I Zn 0.36642(2) 0.22478(2) 0.23988(2)
Zn3J Zn -0.14164(3) 0.63358(2) 0.23988(2)
Zn3K Zn 0.77522(2) 1.14164(3) 0.23988(2)
Zn4C_2 Zn 0.70411(3) 0.86012(3) 0.80161(3)
Zn4D_2 Zn 0.15601(4) 0.29589(3) 0.80161(3)
Zn4E_2 Zn 0.13988(3) 0.84399(4) 0.80161(3)
Zn4F Zn -0.13988(3) 0.70411(3) 0.30161(3)
Zn4G Zn 0.29589(3) 0.15601(4) 0.30161(3)
Zn4H Zn 0.84399(4) 1.13988(3) 0.30161(3)
Zn4I Zn 0.29589(3) 1.13988(3) 0.19839(3)
Zn4J Zn 0.84399(4) 0.70411(3) 0.19839(3)
Zn4K Zn -0.13988(3) 0.15601(4) 0.19839(3)
O5F O 0.64632(17) 0.73957(15) -0.27621(18)
O5G O 0.26043(15) 0.90675(23) -0.27621(18)
O5H O 0.09325(23) 0.35368(17) -0.27621(18)
O5I O 0.26043(15) 0.35368(17) 0.77621(18)
O5J O 0.09325(23) 0.73957(15) 0.77621(18)
O5K O 0.64632(17) 0.90675(23) 0.77621(18)
O6F O 0.69474(19) 0.78911(17) 0.68077(19)
O6G O 0.21089(17) 0.90563(25) 0.68077(19)
O6H O 0.09437(25) 0.30526(19) 0.68077(19)
O6I O 0.21089(17) 0.30526(19) -0.18077(19)
O6J O 0.09437(25) 0.78911(17) -0.18077(19)
O6K O 0.69474(19) 0.90563(25) -0.18077(19)
O9C_2 O 0.5745(2) 0.7574(2) -0.2539(2)
O9D_2 O 0.1829(3) 0.4255(2) -0.2539(2)
O9E_2 O 0.2426(2) 0.8171(3) -0.2539(2)
O10C_2 O 0.76166(18) 0.8859(3) -0.21263(18)
O10D_2 O 0.12424(35) 0.23834(18) -0.21263(18)
O10E_2 O 0.1141(3) 0.87576(35) -0.21263(18)
loop_
_geom_bond_atom_site_label_1
_geom_bond_atom_site_label_2
_geom_bond_site_symmetry_1
_geom_bond_site_symmetry_2
Zn1 O1 1_555 1_555
Zn2 O1 1_555 1_555
O1 Zn2A 1_555 1_555
O2 Zn3 1_555 1_555
C1 C2 1_555 1_555
C2 H1 1_555 1_555
C3 C2 1_555 1_555
C4 C3 1_555 1_555
H2 C4 1_555 1_555
C5 C4 1_555 1_555
C6 C1 1_555 1_555
H3 C6 1_555 1_555
C7 C1 1_555 1_555
C8 C13 1_555 1_555
C9 C5 1_555 1_555
C10 C14 1_555 1_555
C11 C3 1_555 1_555
C12 C15 1_555 1_555
C13 O3 1_555 1_555
C14 O5 1_555 1_555
C15 O7 1_555 1_555
C16 H4 1_555 1_555
C17 C16 1_555 1_555
C18 C17 1_555 1_555
C19 C20 1_555 1_555
C20 O9 1_555 1_555
C21 O10 1_555 1_555
O3 Zn1 1_555 1_555
O4 Zn2 1_555 1_555
C22 C7 1_555 1_555
H5 C22 1_555 1_555
C23 C8 1_555 1_555
H6 C23 1_555 1_555
C24 C8 1_555 1_555
H7 C24 1_555 1_555
C25 C7 1_555 1_555
H8 C25 1_555 1_555
Zn3 O7 1_555 1_555
Zn4 O2 1_555 1_555
O5 Zn3I 1_555 1_555
O6 C14 1_555 1_555
O8 C15 1_555 1_555
O9 Zn3 1_555 1_555
O10 Zn4 1_555 1_555
C26 C9 1_555 1_555
H9 C26 1_555 1_555
C27 C10 1_555 1_555
H10 C27 1_555 1_555
C28 C10 1_555 1_555
H11 C28 1_555 1_555
C29 C9 1_555 1_555
H12 C29 1_555 1_555
C30 C11 1_555 1_555
H13 C30 1_555 1_555
C31 C12 1_555 1_555
H14 C31 1_555 1_555
C32 C12 1_555 1_555
H15 C32 1_555 1_555
C33 C11 1_555 1_555
H16 C33 1_555 1_555
C34 C18 1_555 1_555
H17 C34 1_555 1_555
C35 C19 1_555 1_555
H18 C35 1_555 1_555
C16A H4A 1_555 1_555
C17A C16 1_555 1_555
C18A C17A 1_555 1_555
C19A C20A 1_555 1_555
C20A O9A 1_555 1_555
O9A Zn3A 1_555 1_555
C34A C18A 1_555 1_555
H17A C34A 1_555 1_555
C35A C19A 1_555 1_555
H18A C35A 1_555 1_555
C16B C17 1_555 1_555
H4B C16B 1_555 1_555
C17B C16A 1_555 1_555
C18B C17B 1_555 1_555
C19B C20B 1_555 1_555
C20B O9B 1_555 1_555
O9B Zn3B 1_555 1_555
C34B C18B 1_555 1_555
H17B C34B 1_555 1_555
C35B C19B 1_555 1_555
H18B C35B 1_555 1_555
O9C C20A 1_555 1_555
C34C C18A 1_555 1_555
H17C C34C 1_555 1_555
C35C C19A 1_555 1_555
H18C C35C 1_555 1_555
O9D C20 1_555 1_555
C34D C18 1_555 1_555
H17D C34D 1_555 1_555
C35D C19 1_555 1_555
H18D C35D 1_555 1_555
O9E C20B 1_555 1_555
C34E C18B 1_555 1_555
H17E C34E 1_555 1_555
C35E C19B 1_555 1_555
H18E C35E 1_555 1_555
O10D C21 1_555 1_555
Zn2A O4A 1_555 1_555
O2A Zn3A 1_555 1_555
C1A C2A 1_555 1_555
C2A H1A 1_555 1_555
C3A C2A 1_555 1_555
C4A C3A 1_555 1_555
H2A C4A 1_555 1_555
C5A C4A 1_555 1_555
C6A C1A 1_555 1_555
H3A C6A 1_555 1_555
C7A C1A 1_555 1_555
C8A C13A 1_555 1_555
C9A C5A 1_555 1_555
C10A C14A 1_555 1_555
C11A C3A 1_555 1_555
C12A C15A 1_555 1_555
C13A O3A 1_555 1_555
C14A O5A 1_555 1_555
C15A O7A 1_555 1_555
C21A O10A 1_555 1_555
O3A Zn1 1_555 1_555
O4A C13A 1_555 1_555
C22A C7A 1_555 1_555
H5A C22A 1_555 1_555
C23A C8A 1_555 1_555
H6A C23A 1_555 1_555
C24A C8A 1_555 1_555
H7A C24A 1_555 1_555
C25A C7A 1_555 1_555
H8A C25A 1_555 1_555
Zn3A O7A 1_555 1_555
Zn4A O2A 1_555 1_555
O5A Zn3K 1_555 1_555
O6A C14A 1_555 1_555
O8A C15A 1_555 1_555
O10A Zn4A 1_555 1_555
C26A C9A 1_555 1_555
H9A C26A 1_555 1_555
C27A C10A 1_555 1_555
H10A C27A 1_555 1_555
C28A C10A 1_555 1_555
H11A C28A 1_555 1_555
C29A C9A 1_555 1_555
H12A C29A 1_555 1_555
C30A C11A 1_555 1_555
H13A C30A 1_555 1_555
C31A C12A 1_555 1_555
H14A C31A 1_555 1_555
C32A C12A 1_555 1_555
H15A C32A 1_555 1_555
C33A C11A 1_555 1_555
H16A C33A 1_555 1_555
O10C C21A 1_555 1_555
Zn2B O1 1_555 1_555
O2B Zn3B 1_555 1_555
C1B C2B 1_555 1_555
C2B H1B 1_555 1_555
C3B C2B 1_555 1_555
C4B C3B 1_555 1_555
H2B C4B 1_555 1_555
C5B C4B 1_555 1_555
C6B C1B 1_555 1_555
H3B C6B 1_555 1_555
C7B C1B 1_555 1_555
C8B C13B 1_555 1_555
C9B C5B 1_555 1_555
C10B C14B 1_555 1_555
C11B C3B 1_555 1_555
C12B C15B 1_555 1_555
C13B O3B 1_555 1_555
C14B O5B 1_555 1_555
C15B O7B 1_555 1_555
C21B O10B 1_555 1_555
O3B Zn1 1_555 1_555
O4B Zn2B 1_555 1_555
C22B C7B 1_555 1_555
H5B C22B 1_555 1_555
C23B C8B 1_555 1_555
H6B C23B 1_555 1_555
C24B C8B 1_555 1_555
H7B C24B 1_555 1_555
C25B C7B 1_555 1_555
H8B C25B 1_555 1_555
Zn3B O7B 1_555 1_555
Zn4B O2B 1_555 1_555
O5B Zn3J 1_555 1_555
O6B C14B 1_555 1_555
O8B C15B 1_555 1_555
O10B Zn4B 1_555 1_555
C26B C9B 1_555 1_555
H9B C26B 1_555 1_555
C27B C10B 1_555 1_555
H10B C27B 1_555 1_555
C28B C10B 1_555 1_555
H11B C28B 1_555 1_555
C29B C9B 1_555 1_555
H12B C29B 1_555 1_555
C30B C11B 1_555 1_555
H13B C30B 1_555 1_555
C31B C12B 1_555 1_555
H14B C31B 1_555 1_555
C32B C12B 1_555 1_555
H15B C32B 1_555 1_555
C33B C11B 1_555 1_555
H16B C33B 1_555 1_555
O10E C21B 1_555 1_555
Zn1C Zn2 1_555 1_555
Zn2C Zn1 1_555 1_555
C1C C2C 1_555 1_555
C2C H1C 1_555 1_555
C3C C2C 1_555 1_555
C4C C3C 1_555 1_555
H2C C4C 1_555 1_555
C5C C4C 1_555 1_555
C6C C1C 1_555 1_555
H3C C6C 1_555 1_555
C7C C1C 1_555 1_555
C8C C13C 1_555 1_555
C9C C5C 1_555 1_555
C10C C14C 1_555 1_555
C11C C3C 1_555 1_555
C12C C15C 1_555 1_555
C13C O3C 1_555 1_555
C14C O5C 1_555 1_555
C15C O7C 1_555 1_555
O3C Zn2 1_555 1_555
O4C Zn2 1_555 1_555
C22C C7C 1_555 1_555
H5C C22C 1_555 1_555
C23C C8C 1_555 1_555
H6C C23C 1_555 1_555
C24C C8C 1_555 1_555
H7C C24C 1_555 1_555
C25C C7C 1_555 1_555
H8C C25C 1_555 1_555
Zn3C O7C 1_555 1_555
Zn4C O8C 1_555 1_555
O5C Zn3F 1_555 1_555
O6C C14C 1_555 1_555
O8C C15C 1_555 1_555
C26C C9C 1_555 1_555
H9C C26C 1_555 1_555
C27C C10C 1_555 1_555
H10C C27C 1_555 1_555
C28C C10C 1_555 1_555
H11C C28C 1_555 1_555
C29C C9C 1_555 1_555
H12C C29C 1_555 1_555
C30C C11C 1_555 1_555
H13C C30C 1_555 1_555
C31C C12C 1_555 1_555
H14C C31C 1_555 1_555
C32C C12C 1_555 1_555
H15C C32C 1_555 1_555
C33C C11C 1_555 1_555
H16C C33C 1_555 1_555
Zn2D Zn1 1_555 1_555
C1D C2D 1_555 1_555
C2D H1D 1_555 1_555
C3D C2D 1_555 1_555
C4D C3D 1_555 1_555
H2D C4D 1_555 1_555
C5D C4D 1_555 1_555
C6D C1D 1_555 1_555
H3D C6D 1_555 1_555
C7D C1D 1_555 1_555
C8D C13D 1_555 1_555
C9D C5D 1_555 1_555
C10D C14D 1_555 1_555
C11D C3D 1_555 1_555
C12D C15D 1_555 1_555
C13D O3D 1_555 1_555
C14D O5D 1_555 1_555
C15D O7D 1_555 1_555
O3D Zn2 1_555 1_555
O4D Zn2B 1_555 1_555
C22D C7D 1_555 1_555
H5D C22D 1_555 1_555
C23D C8D 1_555 1_555
H6D C23D 1_555 1_555
C24D C8D 1_555 1_555
H7D C24D 1_555 1_555
C25D C7D 1_555 1_555
H8D C25D 1_555 1_555
Zn3D O7D 1_555 1_555
Zn4D O8D 1_555 1_555
O5D Zn3H 1_555 1_555
O6D C14D 1_555 1_555
O8D C15D 1_555 1_555
C26D C9D 1_555 1_555
H9D C26D 1_555 1_555
C27D C10D 1_555 1_555
H10D C27D 1_555 1_555
C28D C10D 1_555 1_555
H11D C28D 1_555 1_555
C29D C9D 1_555 1_555
H12D C29D 1_555 1_555
C30D C11D 1_555 1_555
H13D C30D 1_555 1_555
C31D C12D 1_555 1_555
H14D C31D 1_555 1_555
C32D C12D 1_555 1_555
H15D C32D 1_555 1_555
C33D C11D 1_555 1_555
H16D C33D 1_555 1_555
Zn2E Zn1 1_555 1_555
C1E C2E 1_555 1_555
C2E H1E 1_555 1_555
C3E C2E 1_555 1_555
C4E C3E 1_555 1_555
H2E C4E 1_555 1_555
C5E C4E 1_555 1_555
C6E C1E 1_555 1_555
H3E C6E 1_555 1_555
C7E C1E 1_555 1_555
C8E C13E 1_555 1_555
C9E C5E 1_555 1_555
C10E C14E 1_555 1_555
C11E C3E 1_555 1_555
C12E C15E 1_555 1_555
C13E O3E 1_555 1_555
C14E O5E 1_555 1_555
C15E O7E 1_555 1_555
O3E Zn2A 1_555 1_555
O4E Zn2A 1_555 1_555
C22E C7E 1_555 1_555
H5E C22E 1_555 1_555
C23E C8E 1_555 1_555
H6E C23E 1_555 1_555
C24E C8E 1_555 1_555
H7E C24E 1_555 1_555
C25E C7E 1_555 1_555
H8E C25E 1_555 1_555
Zn3E O7E 1_555 1_555
Zn4E O8E 1_555 1_555
O5E Zn3G 1_555 1_555
O6E C14E 1_555 1_555
O8E C15E 1_555 1_555
C26E C9E 1_555 1_555
H9E C26E 1_555 1_555
C27E C10E 1_555 1_555
H10E C27E 1_555 1_555
C28E C10E 1_555 1_555
H11E C28E 1_555 1_555
C29E C9E 1_555 1_555
H12E C29E 1_555 1_555
C30E C11E 1_555 1_555
H13E C30E 1_555 1_555
C31E C12E 1_555 1_555
H14E C31E 1_555 1_555
C32E C12E 1_555 1_555
H15E C32E 1_555 1_555
C33E C11E 1_555 1_555
H16E C33E 1_555 1_555
O2_2 Zn3D 1_555 1_555
O2A_2 Zn3C 1_555 1_555
O2B_2 Zn3E 1_555 1_555
Zn3C_2 O9C 1_555 1_555
Zn3D_2 O2 1_555 1_555
Zn3E_2 O9E 1_555 1_555
Zn4C_2 O2A 1_555 1_555
Zn4D_2 O2 1_555 1_555
Zn4E_2 O2B 1_555 1_555
Zn4F O6B 1_555 1_555
Zn4G O6 1_555 1_555
Zn4H O6A 1_555 1_555
Zn4I O6E 1_555 1_555
Zn4J O6C 1_555 1_555
Zn4K O6D 1_555 1_555
O5F Zn3C 1_555 1_555
O5G Zn3E 1_555 1_555
O5H Zn3D 1_555 1_555
O5I Zn3 1_555 1_555
O5J Zn3B 1_555 1_555
O5K Zn3A 1_555 1_555
O6F Zn4A 1_555 1_555
O6G Zn4B 1_555 1_555
O6H Zn4 1_555 1_555
O6I Zn4D 1_555 1_555
O6J Zn4E 1_555 1_555
O6K Zn4C 1_555 1_555
O9C_2 Zn3C 1_555 1_555
O9D_2 Zn3D 1_555 1_555
O9E_2 Zn3E 1_555 1_555
O10C_2 Zn4C 1_555 1_555
O10D_2 Zn4D 1_555 1_555
O10E_2 Zn4E 1_555 1_555
Zn2 Zn2C 1_555 1_555
Zn2 Zn2D 1_555 1_555
O1 Zn1C 1_555 1_555
O1 Zn2C 1_555 1_555
O1 Zn2D 1_555 1_555
O1 Zn2E 1_555 1_555
C5 C6 1_555 1_555
C13 O4 1_555 1_555
O3 Zn2C 1_555 1_555
O3 Zn2D 1_555 1_555
O4 Zn2C 1_555 1_555
C22 C23 1_555 1_555
C24 C25 1_555 1_555
Zn4 O8 1_555 1_555
C26 C27 1_555 1_555
C28 C29 1_555 1_555
C30 C31 1_555 1_555
C32 C33 1_555 1_555
C34 C35 1_555 1_555
C16A C17A 1_555 1_555
C34A C35A 1_555 1_555
C16B C17B 1_555 1_555
C34B C35B 1_555 1_555
C34C C35C 1_555 1_555
O9D Zn3D_2 1_555 1_555
C34D C35D 1_555 1_555
C34E C35E 1_555 1_555
O10D Zn4D_2 1_555 1_555
Zn2A Zn1C 1_555 1_555
Zn2A Zn2C 1_555 1_555
Zn2A O3C 1_555 1_555
Zn2A Zn2E 1_555 1_555
O2A Zn3C_2 1_555 1_555
C5A C6A 1_555 1_555
O3A Zn2C 1_555 1_555
O3A Zn2E 1_555 1_555
O4A Zn2E 1_555 1_555
C22A C23A 1_555 1_555
C24A C25A 1_555 1_555
Zn4A O8A 1_555 1_555
C26A C27A 1_555 1_555
C28A C29A 1_555 1_555
C30A C31A 1_555 1_555
C32A C33A 1_555 1_555
O10C Zn4C_2 1_555 1_555
Zn2B Zn1C 1_555 1_555
Zn2B Zn2D 1_555 1_555
Zn2B O3D 1_555 1_555
Zn2B Zn2E 1_555 1_555
Zn2B O3E 1_555 1_555
O2B Zn3E_2 1_555 1_555
C5B C6B 1_555 1_555
C13B O4B 1_555 1_555
O3B Zn2D 1_555 1_555
O3B Zn2E 1_555 1_555
O4B Zn2D 1_555 1_555
C22B C23B 1_555 1_555
C24B C25B 1_555 1_555
Zn4B O8B 1_555 1_555
C26B C27B 1_555 1_555
C28B C29B 1_555 1_555
C30B C31B 1_555 1_555
C32B C33B 1_555 1_555
O10E Zn4E_2 1_555 1_555
Zn1C O3C 1_555 1_555
Zn1C O3D 1_555 1_555
Zn1C O3E 1_555 1_555
Zn2C O4C 1_555 1_555
C5C C6C 1_555 1_555
C13C O4C 1_555 1_555
C22C C23C 1_555 1_555
C24C C25C 1_555 1_555
Zn4C O2A_2 1_555 1_555
C26C C27C 1_555 1_555
C28C C29C 1_555 1_555
C30C C31C 1_555 1_555
C32C C33C 1_555 1_555
Zn2D O4D 1_555 1_555
C5D C6D 1_555 1_555
C13D O4D 1_555 1_555
C22D C23D 1_555 1_555
C24D C25D 1_555 1_555
Zn4D O2_2 1_555 1_555
C26D C27D 1_555 1_555
C28D C29D 1_555 1_555
C30D C31D 1_555 1_555
C32D C33D 1_555 1_555
Zn2E O4E 1_555 1_555
C5E C6E 1_555 1_555
C13E O4E 1_555 1_555
C22E C23E 1_555 1_555
C24E C25E 1_555 1_555
Zn4E O2B_2 1_555 1_555
C26E C27E 1_555 1_555
C28E C29E 1_555 1_555
C30E C31E 1_555 1_555
C32E C33E 1_555 1_555

#END
