
#######################################################################
#
#                 Cambridge Crystallographic Data Centre
#                                CCDC 
#
#######################################################################
#
# If this CIF has been generated from an entry in the Cambridge 
# Structural Database, then it will include bibliographic, chemical, 
# crystal, experimental, refinement or atomic coordinate data resulting 
# from the CCDC's data processing and validation procedures.
#
#######################################################################

data_KIPZEQ
_chemical_formula_moiety         '(C48 H40 Co5 N8 O21)n'
_symmetry_cell_setting           triclinic
_symmetry_space_group_name_H-M   'P -1'
_symmetry_Int_Tables_number      2
_space_group_name_Hall           '-P 1'
loop_
_symmetry_equiv_pos_site_id
_symmetry_equiv_pos_as_xyz
1 x,y,z
2 -x,-y,-z
_cell_length_a                   10.975(2)
_cell_length_b                   12.139(2)
_cell_length_c                   13.728(3)
_cell_angle_alpha                67.25(3)
_cell_angle_beta                 80.94(3)
_cell_angle_gamma                70.26(3)
_cell_volume                     1586.76
loop_
_atom_site_label
_atom_site_type_symbol
_atom_site_fract_x
_atom_site_fract_y
_atom_site_fract_z
Co1 Co -0.0000 0.5000 0.0000
Co2 Co -0.04300(16) 0.59418(14) 0.18500(11)
Co3 Co -0.13202(16) 0.32855(14) 0.18751(11)
O1 O -0.0274(8) 0.2764(7) 0.3172(5)
O2 O 0.0348(8) 0.4355(7) 0.3109(5)
O3 O 0.2268(7) 0.6354(7) -0.0516(5)
O4 O 0.1255(7) 0.5260(7) 0.0876(6)
O5 O -0.1114(8) 0.7616(7) 0.0492(6)
O6 O -0.0553(8) 0.6944(7) -0.0885(6)
N1 N -0.263(2) 0.6334(17) 0.3409(17)
O7 O -0.1282(7) 0.5103(6) 0.1245(5)
H1 H -0.2075 0.5354 0.1426
N2 N 0.1496(10) -0.1400(9) 0.7634(7)
N3 N 0.6878(9) 0.3706(9) 0.2710(7)
N4 N -0.0594(10) 1.3088(8) -0.2276(7)
C1 C 0.0289(12) 0.3276(11) 0.3535(8)
C2 C 0.0911(11) 0.2483(11) 0.4573(9)
H2 H 0.1345 0.2832 0.4847
C3 C 0.0895(12) 0.1356(10) 0.5119(8)
H3 H 0.0530 0.0998 0.4798
C4 C 0.1374(12) 0.0567(11) 0.6176(9)
C5 C 0.1958(15) 0.0952(12) 0.6767(10)
H4 H 0.2104 0.1728 0.6499
C6 C 0.2306(15) 0.0109(12) 0.7777(11)
H5 H 0.2714 0.0320 0.8194
C7 C 0.2073(13) -0.1005(12) 0.8175(9)
H6 H 0.2325 -0.1530 0.8859
C8 C 0.1200(12) -0.0596(10) 0.6633(8)
H7 H 0.0847 -0.0856 0.6218
C9 C 0.2179(11) 0.5685(11) 0.0444(9)
C10 C 0.3286(11) 0.5379(11) 0.1095(9)
H8 H 0.3958 0.5714 0.0774
C11 C 0.3375(11) 0.4659(11) 0.2104(8)
H9 H 0.2663 0.4398 0.2441
C12 C 0.4523(12) 0.4241(12) 0.2732(8)
C13 C 0.4473(14) 0.3996(16) 0.3790(10)
H10 H 0.3687 0.4057 0.4167
C14 C 0.5598(15) 0.3660(18) 0.4289(11)
H11 H 0.5563 0.3543 0.5002
C15 C 0.6774(14) 0.3493(15) 0.3761(10)
H12 H 0.7522 0.3227 0.4133
C16 C 0.5755(12) 0.4060(11) 0.2250(9)
H13 H 0.5799 0.4200 0.1531
C17 C -0.0976(11) 0.7778(10) -0.0483(9)
C18 C -0.1316(11) 0.9092(11) -0.1247(9)
H14 H -0.1515 0.9230 -0.1927
C19 C -0.1356(11) 1.0079(10) -0.1038(9)
H15 H -0.1358 0.9975 -0.0331
C20 C -0.1398(12) 1.1315(11) -0.1816(9)
C21 C -0.1924(13) 1.1840(12) -0.2806(10)
H16 H -0.2375 1.1431 -0.2995
C22 C -0.1785(13) 1.2952(11) -0.3507(9)
H17 H -0.2154 1.3304 -0.4166
C23 C -0.1111(12) 1.3552(11) -0.3249(9)
H18 H -0.0999 1.4294 -0.3746
C24 C -0.0804(12) 1.2034(11) -0.1588(9)
H19 H -0.0532 1.1756 -0.0901
O8 O -0.1978(19) 0.5662(16) 0.4233(12)
O9 O -0.2213(12) 0.6705(9) 0.2519(8)
O10 O -0.382(2) 0.669(3) 0.3574(16)
Co2A Co 0.04300(16) -0.59418(14) 0.81500(11)
Co3A Co 0.13202(16) -0.32855(14) 0.81249(11)
O1A O 0.0274(8) -0.2764(7) 0.6828(5)
O2A O -0.0348(8) -0.4355(7) 0.6891(5)
O3A O -0.2268(7) -0.6354(7) 1.0516(5)
O4A O -0.1255(7) -0.5260(7) 0.9124(6)
O5A O 0.1114(8) -0.7616(7) 0.9508(6)
O6A O 0.0553(8) -0.6944(7) 1.0885(6)
N1A N 0.263(2) -0.6334(17) 0.6591(17)
O7A O 0.1282(7) -0.5103(6) 0.8755(5)
H1A H 0.2075 -0.5354 0.8574
N2A N -0.1496(10) 0.1400(9) 0.2366(7)
N3A N -0.6878(9) -0.3706(9) 0.7290(7)
N4A N 0.0594(10) -1.3088(8) 1.2276(7)
C1A C -0.0289(12) -0.3276(11) 0.6465(8)
C2A C -0.0911(11) -0.2483(11) 0.5427(9)
H2A H -0.1345 -0.2832 0.5153
C3A C -0.0895(12) -0.1356(10) 0.4881(8)
H3A H -0.0530 -0.0998 0.5202
C4A C -0.1374(12) -0.0567(11) 0.3824(9)
C5A C -0.1958(15) -0.0952(12) 0.3233(10)
H4A H -0.2104 -0.1728 0.3501
C6A C -0.2306(15) -0.0109(12) 0.2223(11)
H5A H -0.2714 -0.0320 0.1806
C7A C -0.2073(13) 0.1005(12) 0.1825(9)
H6A H -0.2325 0.1530 0.1141
C8A C -0.1200(12) 0.0596(10) 0.3367(8)
H7A H -0.0847 0.0856 0.3782
C9A C -0.2179(11) -0.5685(11) 0.9556(9)
C10A C -0.3286(11) -0.5379(11) 0.8905(9)
H8A H -0.3958 -0.5714 0.9226
C11A C -0.3375(11) -0.4659(11) 0.7896(8)
H9A H -0.2663 -0.4398 0.7559
C12A C -0.4523(12) -0.4241(12) 0.7268(8)
C13A C -0.4473(14) -0.3996(16) 0.6210(10)
H10A H -0.3687 -0.4057 0.5833
C14A C -0.5598(15) -0.3660(18) 0.5711(11)
H11A H -0.5563 -0.3543 0.4998
C15A C -0.6774(14) -0.3493(15) 0.6239(10)
H12A H -0.7522 -0.3227 0.5867
C16A C -0.5755(12) -0.4060(11) 0.7750(9)
H13A H -0.5799 -0.4200 0.8469
C17A C 0.0976(11) -0.7778(10) 1.0483(9)
C18A C 0.1316(11) -0.9092(11) 1.1247(9)
H14A H 0.1515 -0.9230 1.1927
C19A C 0.1356(11) -1.0079(10) 1.1038(9)
H15A H 0.1358 -0.9975 1.0331
C20A C 0.1398(12) -1.1315(11) 1.1816(9)
C21A C 0.1924(13) -1.1840(12) 1.2806(10)
H16A H 0.2375 -1.1431 1.2995
C22A C 0.1785(13) -1.2952(11) 1.3507(9)
H17A H 0.2154 -1.3304 1.4166
C23A C 0.1111(12) -1.3552(11) 1.3249(9)
H18A H 0.0999 -1.4294 1.3746
C24A C 0.0804(12) -1.2034(11) 1.1588(9)
H19A H 0.0532 -1.1756 1.0901
O8A O 0.1978(19) -0.5662(16) 0.5767(12)
O9A O 0.2213(12) -0.6705(9) 0.7481(8)
O10A O 0.382(2) -0.669(3) 0.6426(16)
Co1_2 Co 0.0000 -0.5000 1.0000
Co2_2 Co -0.04300(16) -1.40582(14) 1.18500(11)
Co2A_2 Co 0.04300(16) 1.40582(14) -0.18500(11)
Co3_2 Co -0.13202(16) -0.67145(14) 1.18751(11)
Co3_3 Co 0.86798(16) 0.32855(14) 0.18751(11)
Co3A_2 Co -0.86798(16) -0.32855(14) 0.81249(11)
Co3A_3 Co 0.13202(16) 0.67145(14) -0.18751(11)
O3_2 O 0.2268(7) -0.3646(7) 0.9484(5)
O3A_2 O -0.2268(7) 0.3646(7) 0.0516(5)
O4A_2 O -0.1255(7) 0.4740(7) -0.0876(6)
O6_2 O -0.0553(8) -0.3056(7) 0.9115(6)
O6A_2 O 0.0553(8) 0.3056(7) 0.0885(6)
O7A_2 O 0.1282(7) 0.4897(6) -0.1245(5)
N3_2 N -0.3122(9) 0.3706(9) 0.2710(7)
N3A_2 N 0.3122(9) -0.3706(9) 0.7290(7)
N4_2 N -0.0594(10) -0.6912(8) 0.7724(7)
N4A_2 N 0.0594(10) 0.6912(8) 0.2276(7)
O11 O 0.612(3) 0.693(3) 0.052(2)
loop_
_geom_bond_atom_site_label_1
_geom_bond_atom_site_label_2
_geom_bond_site_symmetry_1
_geom_bond_site_symmetry_2
Co1 O4 1_555 1_555
Co2 O2 1_555 1_555
Co3 O1 1_555 1_555
O1 C1 1_555 1_555
O2 C1 1_555 1_555
O3 C9 1_555 1_555
O4 Co2 1_555 1_555
O5 Co2 1_555 1_555
O6 Co1 1_555 1_555
N1 O8 1_555 1_555
O7 Co1 1_555 1_555
H1 O7 1_555 1_555
N2 C7 1_555 1_555
N3 C15 1_555 1_555
N4 C23 1_555 1_555
C1 C2 1_555 1_555
C2 H2 1_555 1_555
C3 C2 1_555 1_555
H3 C3 1_555 1_555
C4 C3 1_555 1_555
C5 C4 1_555 1_555
H4 C5 1_555 1_555
C6 C5 1_555 1_555
H5 C6 1_555 1_555
C7 C6 1_555 1_555
H6 C7 1_555 1_555
C8 N2 1_555 1_555
H7 C8 1_555 1_555
C9 O4 1_555 1_555
C10 C9 1_555 1_555
H8 C10 1_555 1_555
C11 C10 1_555 1_555
H9 C11 1_555 1_555
C12 C11 1_555 1_555
C13 C12 1_555 1_555
H10 C13 1_555 1_555
C14 C13 1_555 1_555
H11 C14 1_555 1_555
C15 C14 1_555 1_555
H12 C15 1_555 1_555
C16 N3 1_555 1_555
H13 C16 1_555 1_555
C17 O5 1_555 1_555
C18 C17 1_555 1_555
H14 C18 1_555 1_555
C19 C18 1_555 1_555
H15 C19 1_555 1_555
C20 C19 1_555 1_555
C21 C20 1_555 1_555
H16 C21 1_555 1_555
C22 C21 1_555 1_555
H17 C22 1_555 1_555
C23 C22 1_555 1_555
H18 C23 1_555 1_555
C24 N4 1_555 1_555
H19 C24 1_555 1_555
O9 Co2 1_555 1_555
O10 N1 1_555 1_555
Co2A O2A 1_555 1_555
Co3A N2 1_555 1_555
O1A Co3A 1_555 1_555
O2A C1A 1_555 1_555
O3A C9A 1_555 1_555
O4A Co2A 1_555 1_555
O5A Co2A 1_555 1_555
O6A C17A 1_555 1_555
N1A O8A 1_555 1_555
O7A Co2A 1_555 1_555
H1A O7A 1_555 1_555
N2A Co3 1_555 1_555
N3A C15A 1_555 1_555
N4A C23A 1_555 1_555
C1A O1A 1_555 1_555
C2A C1A 1_555 1_555
H2A C2A 1_555 1_555
C3A C2A 1_555 1_555
H3A C3A 1_555 1_555
C4A C3A 1_555 1_555
C5A C4A 1_555 1_555
H4A C5A 1_555 1_555
C6A C5A 1_555 1_555
H5A C6A 1_555 1_555
C7A N2A 1_555 1_555
H6A C7A 1_555 1_555
C8A N2A 1_555 1_555
H7A C8A 1_555 1_555
C9A O4A 1_555 1_555
C10A C9A 1_555 1_555
H8A C10A 1_555 1_555
C11A C10A 1_555 1_555
H9A C11A 1_555 1_555
C12A C11A 1_555 1_555
C13A C12A 1_555 1_555
H10A C13A 1_555 1_555
C14A C13A 1_555 1_555
H11A C14A 1_555 1_555
C15A C14A 1_555 1_555
H12A C15A 1_555 1_555
C16A N3A 1_555 1_555
H13A C16A 1_555 1_555
C17A O5A 1_555 1_555
C18A C17A 1_555 1_555
H14A C18A 1_555 1_555
C19A C18A 1_555 1_555
H15A C19A 1_555 1_555
C20A C19A 1_555 1_555
C21A C20A 1_555 1_555
H16A C21A 1_555 1_555
C22A C21A 1_555 1_555
H17A C22A 1_555 1_555
C23A C22A 1_555 1_555
H18A C23A 1_555 1_555
C24A N4A 1_555 1_555
H19A C24A 1_555 1_555
O9A Co2A 1_555 1_555
O10A N1A 1_555 1_555
Co1_2 O4A 1_555 1_555
Co2_2 N4A 1_555 1_555
Co2A_2 N4 1_555 1_555
Co3_2 O3A 1_555 1_555
Co3_3 N3 1_555 1_555
Co3A_2 N3A 1_555 1_555
Co3A_3 O3 1_555 1_555
O3_2 Co3A 1_555 1_555
O3A_2 Co3 1_555 1_555
O4A_2 Co1 1_555 1_555
O6_2 Co3A 1_555 1_555
O6A_2 Co1 1_555 1_555
O7A_2 Co1 1_555 1_555
N3_2 Co3 1_555 1_555
N3A_2 Co3A 1_555 1_555
N4_2 Co2A 1_555 1_555
N4A_2 Co2 1_555 1_555
Co2 O7 1_555 1_555
Co3 O7 1_555 1_555
Co3 O6A_2 1_555 1_555
O6 C17 1_555 1_555
O6 Co3A_3 1_555 1_555
N1 O9 1_555 1_555
C4 C8 1_555 1_555
C12 C16 1_555 1_555
C20 C24 1_555 1_555
Co3A O7A 1_555 1_555
O6A Co1_2 1_555 1_555
O6A Co3_2 1_555 1_555
N1A O9A 1_555 1_555
O7A Co1_2 1_555 1_555
C4A C8A 1_555 1_555
C6A C7A 1_555 1_555
C12A C16A 1_555 1_555
C20A C24A 1_555 1_555
Co1_2 O6_2 1_555 1_555
Co3A_3 O7A_2 1_555 1_555

#END
