
#######################################################################
#
#                 Cambridge Crystallographic Data Centre
#                                CCDC 
#
#######################################################################
#
# If this CIF has been generated from an entry in the Cambridge 
# Structural Database, then it will include bibliographic, chemical, 
# crystal, experimental, refinement or atomic coordinate data resulting 
# from the CCDC's data processing and validation procedures.
#
#######################################################################

data_ZADRII
_chemical_formula_moiety         'C32 H24 Cl1 Cu12 N33 O7 1-'
_symmetry_cell_setting           tetragonal
_symmetry_space_group_name_H-M   'I 4/m m m'
_symmetry_Int_Tables_number      139
_space_group_name_Hall           '-I 4 2'
loop_
_symmetry_equiv_pos_site_id
_symmetry_equiv_pos_as_xyz
1 x,y,z
2 -y,x,z
3 -x,-y,z
4 y,-x,z
5 x,-y,-z
6 -x,y,-z
7 y,x,-z
8 -y,-x,-z
9 1/2+x,1/2+y,1/2+z
10 1/2-y,1/2+x,1/2+z
11 1/2-x,1/2-y,1/2+z
12 1/2+y,1/2-x,1/2+z
13 1/2+x,1/2-y,1/2-z
14 1/2-x,1/2+y,1/2-z
15 1/2+y,1/2+x,1/2-z
16 1/2-y,1/2-x,1/2-z
17 -x,-y,-z
18 y,-x,-z
19 x,y,-z
20 -y,x,-z
21 -x,y,z
22 x,-y,z
23 -y,-x,z
24 y,x,z
25 1/2-x,1/2-y,1/2-z
26 1/2+y,1/2-x,1/2-z
27 1/2+x,1/2+y,1/2-z
28 1/2-y,1/2+x,1/2-z
29 1/2-x,1/2+y,1/2+z
30 1/2+x,1/2-y,1/2+z
31 1/2-y,1/2-x,1/2+z
32 1/2+y,1/2+x,1/2+z
_cell_length_a                   13.9585(4)
_cell_length_b                   13.9585(4)
_cell_length_c                   20.0529(8)
_cell_angle_alpha                90
_cell_angle_beta                 90
_cell_angle_gamma                90
_cell_volume                     3907.1
loop_
_atom_site_label
_atom_site_type_symbol
_atom_site_fract_x
_atom_site_fract_y
_atom_site_fract_z
O3 O 0.4216(8) 0.0000 -0.1707(8)
N3 N 0.5000 0.0000 -0.151(2)
O4 O 0.5000 0.0000 -0.091(2)
O3B O 0.5784(8) 0.0000 -0.1707(8)
Cu1 Cu 0.18418(5) 0.0000 0.0000
Cl1 Cl 0.0000 0.0000 0.0000
N1 N 0.1766(8) -0.1081(10) -0.0681(7)
N2 N 0.1983(2) -0.1983(2) -0.1586(2)
C1 C 0.3102(3) -0.1898(3) -0.2500
H1 H 0.3574 -0.1427 -0.2500
C2 C 0.2343(5) -0.2343(5) -0.2180(4)
C3 C 0.2301(4) -0.1212(4) -0.1209(3)
H2 H 0.2828 -0.0836 -0.1317
O1 O 0.3534(5) 0.0000 0.0000
N1N N 0.3919(10) -0.3234(8) -0.4319(7)
N2N N 0.3017(2) -0.3017(2) -0.3414(2)
C2N C 0.2657(5) -0.2657(5) -0.2820(4)
C3N C 0.3788(4) -0.2699(4) -0.3791(3)
H2N H 0.4164 -0.2172 -0.3683
N1V N 0.1081(10) -0.1766(8) -0.0681(7)
C1V C 0.1898(3) -0.3102(3) -0.2500
H1V H 0.1427 -0.3574 -0.2500
C3V C 0.1212(4) -0.2301(4) -0.1209(3)
H2V H 0.0836 -0.2828 -0.1317
N1X N 0.3234(8) -0.3919(10) -0.4319(7)
C3X C 0.2699(4) -0.3788(4) -0.3791(3)
H2X H 0.2172 -0.4164 -0.3683
Cu1A Cu 0.0000 0.18418(5) 0.0000
N1A N 0.1081(10) 0.1766(8) -0.0681(7)
N2A N 0.1983(2) 0.1983(2) -0.1586(2)
C1A C 0.1898(3) 0.3102(3) -0.2500
H1A H 0.1427 0.3574 -0.2500
C2A C 0.2343(5) 0.2343(5) -0.2180(4)
C3A C 0.1212(4) 0.2301(4) -0.1209(3)
H2A H 0.0836 0.2828 -0.1317
O1A O 0.0000 0.3534(5) 0.0000
N1M N 0.3234(8) 0.3919(10) -0.4319(7)
N2M N 0.3017(2) 0.3017(2) -0.3414(2)
C2M C 0.2657(5) 0.2657(5) -0.2820(4)
C3M C 0.2699(4) 0.3788(4) -0.3791(3)
H2M H 0.2172 0.4164 -0.3683
N1U N 0.1766(8) 0.1081(10) -0.0681(7)
C1U C 0.3102(3) 0.1898(3) -0.2500
H1U H 0.3574 0.1427 -0.2500
C3U C 0.2301(4) 0.1212(4) -0.1209(3)
H2U H 0.2828 0.0836 -0.1317
N1Y N 0.3919(10) 0.3234(8) -0.4319(7)
C3Y C 0.3788(4) 0.2699(4) -0.3791(3)
H2Y H 0.4164 0.2172 -0.3683
Cu1B Cu -0.18418(5) 0.0000 0.0000
N1B N -0.1766(8) 0.1081(10) -0.0681(7)
N2B N -0.1983(2) 0.1983(2) -0.1586(2)
C1B C -0.3102(3) 0.1898(3) -0.2500
H1B H -0.3574 0.1427 -0.2500
C2B C -0.2343(5) 0.2343(5) -0.2180(4)
C3B C -0.2301(4) 0.1212(4) -0.1209(3)
H2B H -0.2828 0.0836 -0.1317
O1B O -0.3534(5) 0.0000 0.0000
N1O N -0.3919(10) 0.3234(8) -0.4319(7)
N2O N -0.3017(2) 0.3017(2) -0.3414(2)
C2O C -0.2657(5) 0.2657(5) -0.2820(4)
C3O C -0.3788(4) 0.2699(4) -0.3791(3)
H2O H -0.4164 0.2172 -0.3683
N1W N -0.1081(10) 0.1766(8) -0.0681(7)
C1W C -0.1898(3) 0.3102(3) -0.2500
H1W H -0.1427 0.3574 -0.2500
C3W C -0.1212(4) 0.2301(4) -0.1209(3)
H2W H -0.0836 0.2828 -0.1317
N1Z N -0.3234(8) 0.3919(10) -0.4319(7)
C3Z C -0.2699(4) 0.3788(4) -0.3791(3)
H2Z H -0.2172 0.4164 -0.3683
Cu1C Cu 0.0000 -0.18418(5) 0.0000
N1C N -0.1081(10) -0.1766(8) -0.0681(7)
N2C N -0.1983(2) -0.1983(2) -0.1586(2)
C1C C -0.1898(3) -0.3102(3) -0.2500
H1C H -0.1427 -0.3574 -0.2500
C2C C -0.2343(5) -0.2343(5) -0.2180(4)
C3C C -0.1212(4) -0.2301(4) -0.1209(3)
H2C H -0.0836 -0.2828 -0.1317
O1C O 0.0000 -0.3534(5) 0.0000
N1L N -0.3234(8) -0.3919(10) -0.4319(7)
N2L N -0.3017(2) -0.3017(2) -0.3414(2)
C2L C -0.2657(5) -0.2657(5) -0.2820(4)
C3L C -0.2699(4) -0.3788(4) -0.3791(3)
H2L H -0.2172 -0.4164 -0.3683
N1T N -0.1766(8) -0.1081(10) -0.0681(7)
C1T C -0.3102(3) -0.1898(3) -0.2500
H1T H -0.3574 -0.1427 -0.2500
C3T C -0.2301(4) -0.1212(4) -0.1209(3)
H2T H -0.2828 -0.0836 -0.1317
N1AA N -0.3919(10) -0.3234(8) -0.4319(7)
C3AA C -0.3788(4) -0.2699(4) -0.3791(3)
H2AA H -0.4164 -0.2172 -0.3683
Cu1H Cu -0.31582(5) -0.5000 -0.5000
Cu1H_2 Cu -0.31582(5) 0.5000 -0.5000
Cu1I Cu -0.5000 -0.31582(5) -0.5000
Cu1I_2 Cu 0.5000 -0.31582(5) -0.5000
Cu1J Cu 0.31582(5) -0.5000 -0.5000
Cu1J_2 Cu 0.31582(5) 0.5000 -0.5000
Cu1K Cu -0.5000 0.31582(5) -0.5000
Cu1K_2 Cu 0.5000 0.31582(5) -0.5000
N1D N 0.1766(8) 0.1081(10) 0.0681(7)
N1E N -0.1766(8) -0.1081(10) 0.0681(7)
N1F N -0.1081(10) 0.1766(8) 0.0681(7)
N1G N 0.1081(10) -0.1766(8) 0.0681(7)
N1P N -0.1766(8) 0.1081(10) 0.0681(7)
N1Q N -0.1081(10) -0.1766(8) 0.0681(7)
N1R N 0.1766(8) -0.1081(10) 0.0681(7)
N1S N 0.1081(10) 0.1766(8) 0.0681(7)
loop_
_geom_bond_atom_site_label_1
_geom_bond_atom_site_label_2
_geom_bond_site_symmetry_1
_geom_bond_site_symmetry_2
Cu1 Cl1 1_555 1_555
Cl1 Cu1A 1_555 1_555
N1 Cu1 1_555 1_555
N2 C2 1_555 1_555
C1 H1 1_555 1_555
C2 C1 1_555 1_555
C3 N1 1_555 1_555
H2 C3 1_555 1_555
O1 Cu1 1_555 1_555
O3 N3 1_555 1_555
N3 O4 1_555 1_555
N1N C3N 1_555 1_555
N2N C2N 1_555 1_555
C2N C1 1_555 1_555
C3N N2N 1_555 1_555
H2N C3N 1_555 1_555
N1V N1 1_555 1_555
C1V C2 1_555 1_555
H1V C1V 1_555 1_555
C3V N2 1_555 1_555
H2V C3V 1_555 1_555
N1X N1N 1_555 1_555
C3X N2N 1_555 1_555
H2X C3X 1_555 1_555
Cu1A N1A 1_555 1_555
N1A C3A 1_555 1_555
N2A C2A 1_555 1_555
C1A H1A 1_555 1_555
C2A C1A 1_555 1_555
C3A N2A 1_555 1_555
H2A C3A 1_555 1_555
O1A Cu1A 1_555 1_555
N1M C3M 1_555 1_555
N2M C2M 1_555 1_555
C2M C1A 1_555 1_555
C3M N2M 1_555 1_555
H2M C3M 1_555 1_555
N1U Cu1 1_555 1_555
C1U C2A 1_555 1_555
H1U C1U 1_555 1_555
C3U N2A 1_555 1_555
H2U C3U 1_555 1_555
N1Y N1M 1_555 1_555
C3Y N2M 1_555 1_555
H2Y C3Y 1_555 1_555
Cu1B Cl1 1_555 1_555
N1B Cu1B 1_555 1_555
N2B C2B 1_555 1_555
C1B H1B 1_555 1_555
C2B C1B 1_555 1_555
C3B N1B 1_555 1_555
H2B C3B 1_555 1_555
O1B Cu1B 1_555 1_555
N1O C3O 1_555 1_555
N2O C2O 1_555 1_555
C2O C1B 1_555 1_555
C3O N2O 1_555 1_555
H2O C3O 1_555 1_555
N1W Cu1A 1_555 1_555
C1W C2B 1_555 1_555
H1W C1W 1_555 1_555
C3W N2B 1_555 1_555
H2W C3W 1_555 1_555
N1Z N1O 1_555 1_555
C3Z N2O 1_555 1_555
H2Z C3Z 1_555 1_555
Cu1C Cl1 1_555 1_555
N1C Cu1C 1_555 1_555
N2C C2C 1_555 1_555
C1C H1C 1_555 1_555
C2C C1C 1_555 1_555
C3C N1C 1_555 1_555
H2C C3C 1_555 1_555
O1C Cu1C 1_555 1_555
N1L C3L 1_555 1_555
N2L C2L 1_555 1_555
C2L C1C 1_555 1_555
C3L N2L 1_555 1_555
H2L C3L 1_555 1_555
N1T Cu1B 1_555 1_555
C1T C2C 1_555 1_555
H1T C1T 1_555 1_555
C3T N2C 1_555 1_555
H2T C3T 1_555 1_555
N1AA N1L 1_555 1_555
C3AA N2L 1_555 1_555
H2AA C3AA 1_555 1_555
Cu1H N1L 1_555 1_555
Cu1H_2 N1Z 1_555 1_555
Cu1I N1AA 1_555 1_555
Cu1I_2 N1N 1_555 1_555
Cu1J N1X 1_555 1_555
Cu1J_2 N1M 1_555 1_555
Cu1K N1O 1_555 1_555
Cu1K_2 N1Y 1_555 1_555
N1D Cu1 1_555 1_555
N1E Cu1B 1_555 1_555
N1F Cu1A 1_555 1_555
N1G Cu1C 1_555 1_555
N1P Cu1B 1_555 1_555
N1Q Cu1C 1_555 1_555
N1R Cu1 1_555 1_555
N1S Cu1A 1_555 1_555
O3B N3 1_555 1_555
N2 C3 1_555 1_555
C2 C2N 1_555 1_555
C2N C1V 1_555 1_555
N1V C3V 1_555 1_555
N1V Cu1C 1_555 1_555
N1X C3X 1_555 1_555
N1A N1U 1_555 1_555
C2A C2M 1_555 1_555
C2M C1U 1_555 1_555
N1U C3U 1_555 1_555
N1Y C3Y 1_555 1_555
N1B N1W 1_555 1_555
N2B C3B 1_555 1_555
C2B C2O 1_555 1_555
C2O C1W 1_555 1_555
N1W C3W 1_555 1_555
N1Z C3Z 1_555 1_555
N1C N1T 1_555 1_555
N2C C3C 1_555 1_555
C2C C2L 1_555 1_555
C2L C1T 1_555 1_555
N1T C3T 1_555 1_555
N1AA C3AA 1_555 1_555
N1D N1S 1_555 1_555
N1E N1Q 1_555 1_555
N1F N1P 1_555 1_555
N1G N1R 1_555 1_555

#END
