
#######################################################################
#
#                 Cambridge Crystallographic Data Centre
#                                CCDC 
#
#######################################################################
#
# If this CIF has been generated from an entry in the Cambridge 
# Structural Database, then it will include bibliographic, chemical, 
# crystal, experimental, refinement or atomic coordinate data resulting 
# from the CCDC's data processing and validation procedures.
#
#######################################################################

data_HIFGEK
_chemical_formula_moiety         '(C46 H54 B2 Cu6 N18 S6 W2 1-)n'
_symmetry_cell_setting           monoclinic
_symmetry_space_group_name_H-M   'C 2/c'
_symmetry_Int_Tables_number      15
_space_group_name_Hall           '-C 2yc'
loop_
_symmetry_equiv_pos_site_id
_symmetry_equiv_pos_as_xyz
1 x,y,z
2 -x,y,1/2-z
3 1/2+x,1/2+y,z
4 1/2-x,1/2+y,1/2-z
5 -x,-y,-z
6 x,-y,1/2+z
7 1/2-x,1/2-y,-z
8 1/2+x,1/2-y,1/2+z
_cell_length_a                   30.404(6)
_cell_length_b                   19.657(4)
_cell_length_c                   19.683(4)
_cell_angle_alpha                90
_cell_angle_beta                 127.63(3)
_cell_angle_gamma                90
_cell_volume                     9316.4
loop_
_atom_site_label
_atom_site_type_symbol
_atom_site_fract_x
_atom_site_fract_y
_atom_site_fract_z
_atom_site_U_iso_or_equiv
_atom_site_thermal_displace_type
W1 W 0.234582(17) 0.44484(2) 0.21149(2) 0.0357 Uani
S1 S 0.17066(12) 0.48330(15) 0.22486(17) 0.0472 Uani
S2 S 0.31284(12) 0.47494(15) 0.33855(16) 0.0471 Uani
S3 S 0.23124(11) 0.32716(14) 0.21965(15) 0.0408 Uani
Cu1 Cu 0.18039(5) 0.37390(7) 0.25343(8) 0.0441 Uani
Cu2 Cu 0.29626(5) 0.36841(7) 0.34955(7) 0.0429 Uani
Cu3 Cu 0.09471(5) 0.25377(7) 0.37022(7) 0.0400 Uani
B1 B 0.2254(5) 0.5083(6) 0.0425(7) 0.0424 Uani
H1 H 0.224(4) 0.529(5) -0.005(6) 0.0400 Uiso
N1 N 0.1683(4) 0.4367(4) 0.0677(5) 0.0452 Uani
N2 N 0.1704(4) 0.4745(4) 0.0107(5) 0.0461 Uani
N3 N 0.2368(4) 0.5525(4) 0.1738(5) 0.0420 Uani
N4 N 0.2385(4) 0.5650(4) 0.1052(5) 0.0388 Uani
N5 N 0.2855(4) 0.4261(4) 0.1642(5) 0.0404 Uani
N6 N 0.2729(4) 0.4563(4) 0.0904(5) 0.0436 Uani
N7 N 0.0662(3) 0.3354(4) 0.4083(5) 0.0433 Uani
C1 C 0.1163(5) 0.4059(6) 0.0166(6) 0.0524 Uani
C2 C 0.0879(5) 0.4261(7) -0.0675(7) 0.0671 Uani
H2 H 0.0517 0.4137 -0.1143 0.0800 Uiso
C3 C 0.1243(5) 0.4689(6) -0.0687(6) 0.0546 Uani
C4 C 0.0949(5) 0.3598(7) 0.0512(7) 0.0645 Uani
H3 H 0.1166 0.3182 0.0722 0.0970 Uiso
H4 H 0.0563 0.3490 0.0060 0.0970 Uiso
H5 H 0.0981 0.3824 0.0979 0.0970 Uiso
C5 C 0.1139(6) 0.5054(9) -0.1439(7) 0.0868 Uani
H6 H 0.1146 0.5541 -0.1353 0.1310 Uiso
H7 H 0.0778 0.4924 -0.1956 0.1310 Uiso
H8 H 0.1425 0.4934 -0.1495 0.1310 Uiso
C6 C 0.2464(5) 0.6131(6) 0.2111(7) 0.0568 Uani
C7 C 0.2529(4) 0.6609(6) 0.1700(6) 0.0494 Uani
H9 H 0.2587 0.7074 0.1837 0.0590 Uiso
C8 C 0.2497(4) 0.6313(6) 0.1060(6) 0.0446 Uani
C9 C 0.2423(8) 0.6268(7) 0.2852(9) 0.0905 Uani
H10 H 0.2048 0.6177 0.2652 0.1350 Uiso
H11 H 0.2516 0.6740 0.3031 0.1350 Uiso
H12 H 0.2680 0.5973 0.3334 0.1350 Uiso
C10 C 0.2550(5) 0.6627(6) 0.0420(6) 0.0528 Uani
H13 H 0.2764 0.6329 0.0330 0.0790 Uiso
H14 H 0.2737 0.7063 0.0634 0.0790 Uiso
H15 H 0.2183 0.6694 -0.0119 0.0790 Uiso
C11 C 0.3317(5) 0.3864(6) 0.1950(7) 0.0513 Uani
C12 C 0.3473(6) 0.3945(7) 0.1411(8) 0.0653 Uani
H16 H 0.3780 0.3745 0.1481 0.0780 Uiso
C13 C 0.3088(5) 0.4372(6) 0.0766(8) 0.0563 Uani
C14 C 0.3624(6) 0.3461(8) 0.2755(9) 0.0840 Uani
H17 H 0.3744 0.3758 0.3233 0.1260 Uiso
H18 H 0.3946 0.3252 0.2848 0.1260 Uiso
H19 H 0.3384 0.3109 0.2709 0.1260 Uiso
C15 C 0.3074(7) 0.4645(8) 0.0049(9) 0.0832 Uani
H20 H 0.2739 0.4492 -0.0493 0.1250 Uiso
H21 H 0.3396 0.4484 0.0105 0.1250 Uiso
H22 H 0.3079 0.5139 0.0069 0.1250 Uiso
C16 C 0.0140(4) 0.3609(6) 0.3578(7) 0.0495 Uani
H23 H -0.0109 0.3447 0.3013 0.0590 Uiso
C17 C -0.0043(5) 0.4105(7) 0.3867(10) 0.0744 Uani
H24 H -0.0408 0.4272 0.3505 0.0900 Uiso
C18 C 0.0342(6) 0.4349(7) 0.4727(10) 0.0756 Uani
C19 C 0.0853(6) 0.4065(7) 0.5218(9) 0.0738 Uani
H25 H 0.1105 0.4201 0.5794 0.0890 Uiso
C20 C 0.1019(5) 0.3581(7) 0.4904(8) 0.0640 Uani
H26 H 0.1382 0.3407 0.5264 0.0770 Uiso
C21 C 0.0214(5) 0.4840(7) 0.5179(11) 0.0825 Uani
H27 H 0.0483 0.4900 0.5773 0.0980 Uiso
N8 N 0.1299(4) 0.2983(5) 0.3243(5) 0.0536 Uani
C22 C 0.1469(4) 0.3263(6) 0.2937(6) 0.0457 Uani
N9 N 0.3595(3) 0.2938(5) 0.5186(5) 0.0470 Uani
C23 C 0.3362(4) 0.3218(6) 0.4545(6) 0.0438 Uani
N7D N -0.0662(3) 0.6646(4) 0.5917(5) 0.0433 Uani
C16D C -0.0140(4) 0.6391(6) 0.6422(7) 0.0495 Uani
H23D H 0.0109 0.6553 0.6987 0.0590 Uiso
C17D C 0.0043(5) 0.5895(7) 0.6133(10) 0.0744 Uani
H24D H 0.0408 0.5728 0.6495 0.0900 Uiso
C18D C -0.0342(6) 0.5651(7) 0.5273(10) 0.0756 Uani
C19D C -0.0853(6) 0.5935(7) 0.4782(9) 0.0738 Uani
H25D H -0.1105 0.5799 0.4206 0.0890 Uiso
C20D C -0.1019(5) 0.6419(7) 0.5096(8) 0.0640 Uani
H26D H -0.1382 0.6593 0.4736 0.0770 Uiso
C21D C -0.0214(5) 0.5160(7) 0.4821(11) 0.0825 Uani
H27D H -0.0483 0.5100 0.4227 0.0980 Uiso
W1D W -0.234582(17) 0.55516(2) 0.78851(2) 0.0357 Uani
S1D S -0.17066(12) 0.51670(15) 0.77514(17) 0.0472 Uani
S2D S -0.31284(12) 0.52506(15) 0.66145(16) 0.0471 Uani
S3D S -0.23124(11) 0.67284(14) 0.78035(15) 0.0408 Uani
Cu1D Cu -0.18039(5) 0.62610(7) 0.74657(8) 0.0441 Uani
Cu2D Cu -0.29626(5) 0.63159(7) 0.65045(7) 0.0429 Uani
Cu3D Cu -0.09471(5) 0.74623(7) 0.62978(7) 0.0400 Uani
B1D B -0.2254(5) 0.4917(6) 0.9575(7) 0.0424 Uani
H1D H -0.224(4) 0.471(5) 1.005(6) 0.0400 Uiso
N1D N -0.1683(4) 0.5633(4) 0.9323(5) 0.0452 Uani
N2D N -0.1704(4) 0.5255(4) 0.9893(5) 0.0461 Uani
N3D N -0.2368(4) 0.4475(4) 0.8262(5) 0.0420 Uani
N4D N -0.2385(4) 0.4350(4) 0.8948(5) 0.0388 Uani
N5D N -0.2855(4) 0.5739(4) 0.8358(5) 0.0404 Uani
N6D N -0.2729(4) 0.5437(4) 0.9096(5) 0.0436 Uani
C1D C -0.1163(5) 0.5941(6) 0.9834(6) 0.0524 Uani
C2D C -0.0879(5) 0.5739(7) 1.0675(7) 0.0671 Uani
H2D H -0.0517 0.5863 1.1143 0.0800 Uiso
C3D C -0.1243(5) 0.5311(6) 1.0687(6) 0.0546 Uani
C4D C -0.0949(5) 0.6402(7) 0.9488(7) 0.0645 Uani
H3D H -0.1166 0.6818 0.9278 0.0970 Uiso
H4D H -0.0563 0.6510 0.9940 0.0970 Uiso
H5D H -0.0981 0.6176 0.9021 0.0970 Uiso
C5D C -0.1139(6) 0.4946(9) 1.1439(7) 0.0868 Uani
H6D H -0.1146 0.4459 1.1353 0.1310 Uiso
H7D H -0.0778 0.5076 1.1956 0.1310 Uiso
H8D H -0.1425 0.5066 1.1495 0.1310 Uiso
C6D C -0.2464(5) 0.3869(6) 0.7889(7) 0.0568 Uani
C7D C -0.2529(4) 0.3391(6) 0.8300(6) 0.0494 Uani
H9D H -0.2587 0.2926 0.8163 0.0590 Uiso
C8D C -0.2497(4) 0.3687(6) 0.8940(6) 0.0446 Uani
C9D C -0.2423(8) 0.3732(7) 0.7148(9) 0.0905 Uani
H10D H -0.2048 0.3823 0.7348 0.1350 Uiso
H11D H -0.2516 0.3260 0.6969 0.1350 Uiso
H12D H -0.2680 0.4027 0.6666 0.1350 Uiso
C10D C -0.2550(5) 0.3373(6) 0.9580(6) 0.0528 Uani
H13D H -0.2764 0.3671 0.9670 0.0790 Uiso
H14D H -0.2737 0.2937 0.9366 0.0790 Uiso
H15D H -0.2183 0.3306 1.0119 0.0790 Uiso
C11D C -0.3317(5) 0.6136(6) 0.8050(7) 0.0513 Uani
C12D C -0.3473(6) 0.6055(7) 0.8589(8) 0.0653 Uani
H16D H -0.3780 0.6255 0.8519 0.0780 Uiso
C13D C -0.3088(5) 0.5628(6) 0.9234(8) 0.0563 Uani
C14D C -0.3624(6) 0.6539(8) 0.7245(9) 0.0840 Uani
H17D H -0.3744 0.6242 0.6767 0.1260 Uiso
H18D H -0.3946 0.6748 0.7152 0.1260 Uiso
H19D H -0.3384 0.6891 0.7291 0.1260 Uiso
C15D C -0.3074(7) 0.5355(8) 0.9951(9) 0.0832 Uani
H20D H -0.2739 0.5508 1.0493 0.1250 Uiso
H21D H -0.3396 0.5516 0.9895 0.1250 Uiso
H22D H -0.3079 0.4861 0.9931 0.1250 Uiso
N8D N -0.1299(4) 0.7017(5) 0.6757(5) 0.0536 Uani
C22D C -0.1469(4) 0.6737(6) 0.7063(6) 0.0457 Uani
N9D N -0.3595(3) 0.7062(5) 0.4814(5) 0.0470 Uani
C23D C -0.3362(4) 0.6782(6) 0.5455(6) 0.0438 Uani
Cu3B Cu -0.40529(5) 0.75377(7) 0.37022(7) 0.0400 Uani
Cu3F Cu 0.40529(5) 0.24623(7) 0.62978(7) 0.0400 Uani
N9B N -0.1405(3) 0.7938(5) 0.5186(5) 0.0470 Uani
N9F N 0.1405(3) 0.2062(5) 0.4814(5) 0.0470 Uani
loop_
_atom_site_aniso_label
_atom_site_aniso_U_11
_atom_site_aniso_U_22
_atom_site_aniso_U_33
_atom_site_aniso_U_23
_atom_site_aniso_U_13
_atom_site_aniso_U_12
W1 0.0529(3) 0.0313(3) 0.0299(2) 0.00578(17) 0.0288(2) 0.0003(2)
S1 0.0621(17) 0.0462(17) 0.0536(16) 0.0190(13) 0.0457(14) 0.0143(14)
S2 0.0627(17) 0.0442(17) 0.0347(13) -0.0007(12) 0.0299(13) -0.0033(14)
S3 0.0518(15) 0.0359(15) 0.0358(13) 0.0079(11) 0.0273(12) 0.0015(12)
Cu1 0.0522(8) 0.0483(8) 0.0398(7) 0.0133(6) 0.0322(6) 0.0032(6)
Cu2 0.0535(8) 0.0405(8) 0.0352(6) 0.0124(5) 0.0274(6) 0.0042(6)
Cu3 0.0446(7) 0.0440(8) 0.0338(6) 0.0074(5) 0.0252(6) 0.0062(6)
B1 0.068(8) 0.031(7) 0.035(6) 0.013(5) 0.035(6) 0.006(6)
N1 0.063(6) 0.043(6) 0.039(5) 0.004(4) 0.036(5) -0.001(5)
N2 0.071(6) 0.036(5) 0.031(4) 0.006(4) 0.031(5) -0.011(5)
N3 0.065(6) 0.029(5) 0.041(5) 0.010(4) 0.037(5) 0.003(4)
N4 0.058(5) 0.031(5) 0.037(4) 0.003(4) 0.034(4) -0.001(4)
N5 0.061(5) 0.031(5) 0.037(5) 0.004(4) 0.034(4) -0.002(4)
N6 0.062(6) 0.047(6) 0.032(4) 0.006(4) 0.034(4) 0.002(5)
N7 0.049(5) 0.035(5) 0.046(5) -0.011(4) 0.029(4) -0.006(4)
C1 0.066(7) 0.046(7) 0.038(6) 0.011(5) 0.028(6) -0.005(6)
C2 0.061(8) 0.097(11) 0.035(6) -0.002(6) 0.025(6) -0.025(7)
C3 0.083(8) 0.047(7) 0.033(6) -0.004(5) 0.035(6) -0.023(6)
C4 0.051(7) 0.072(9) 0.041(6) 0.008(6) 0.013(5) -0.020(7)
C5 0.091(10) 0.117(13) 0.038(7) 0.001(7) 0.032(7) -0.036(10)
C6 0.086(9) 0.042(8) 0.052(7) 0.019(6) 0.047(7) 0.004(6)
C7 0.059(7) 0.066(8) 0.028(5) 0.008(5) 0.029(5) 0.005(6)
C8 0.047(6) 0.040(7) 0.040(6) 0.009(5) 0.023(5) -0.011(5)
C9 0.191(17) 0.050(8) 0.081(10) -0.009(7) 0.109(12) -0.012(10)
C10 0.060(7) 0.063(8) 0.039(6) 0.008(5) 0.032(5) -0.015(6)
C11 0.050(6) 0.056(8) 0.059(7) 0.010(6) 0.039(6) 0.005(6)
C12 0.078(9) 0.078(10) 0.068(8) -0.010(7) 0.059(8) 0.008(8)
C13 0.073(8) 0.065(9) 0.052(7) 0.007(6) 0.049(7) 0.013(7)
C14 0.073(9) 0.109(13) 0.090(10) 0.049(9) 0.060(8) 0.039(9)
C15 0.105(11) 0.108(13) 0.068(9) 0.009(8) 0.069(9) 0.011(10)
C16 0.046(6) 0.058(8) 0.040(6) -0.001(5) 0.024(5) 0.009(6)
C17 0.056(8) 0.063(9) 0.119(12) -0.001(9) 0.061(9) 0.003(7)
C18 0.087(8) 0.058(8) 0.097(9) -0.033(7) 0.064(7) -0.019(7)
C19 0.077(8) 0.068(9) 0.084(9) -0.038(7) 0.053(7) -0.010(7)
C20 0.048(7) 0.077(10) 0.073(8) -0.034(7) 0.040(7) -0.017(6)
C21 0.074(9) 0.047(9) 0.114(11) -0.010(7) 0.051(8) -0.012(7)
N8 0.050(5) 0.068(7) 0.040(5) 0.006(5) 0.026(5) 0.006(5)
C22 0.049(6) 0.055(7) 0.038(6) 0.015(5) 0.029(5) 0.006(6)
N9 0.046(5) 0.058(6) 0.039(5) 0.017(4) 0.027(4) 0.007(5)
C23 0.039(6) 0.047(7) 0.042(6) 0.011(5) 0.023(5) 0.009(5)
N7D 0.049 0.035 0.046 -0.011 0.029 -0.006
C16D 0.046 0.058 0.04 -0.001 0.024 0.009
C17D 0.056 0.063 0.119 -0.001 0.061 0.003
C18D 0.087 0.058 0.097 -0.033 0.064 -0.019
C19D 0.077 0.068 0.084 -0.038 0.053 -0.01
C20D 0.048 0.077 0.073 -0.034 0.04 -0.017
C21D 0.074 0.047 0.114 -0.01 0.051 -0.012
W1D 0.0529 0.0313 0.0299 0.00578 0.0288 0.0003
S1D 0.0621 0.0462 0.0536 0.019 0.0457 0.0143
S2D 0.0627 0.0442 0.0347 -0.0007 0.0299 -0.0033
S3D 0.0518 0.0359 0.0358 0.0079 0.0273 0.0015
Cu1D 0.0522 0.0483 0.0398 0.0133 0.0322 0.0032
Cu2D 0.0535 0.0405 0.0352 0.0124 0.0274 0.0042
Cu3D 0.0446 0.044 0.0338 0.0074 0.0252 0.0062
B1D 0.068 0.031 0.035 0.013 0.035 0.006
N1D 0.063 0.043 0.039 0.004 0.036 -0.001
N2D 0.071 0.036 0.031 0.006 0.031 -0.011
N3D 0.065 0.029 0.041 0.01 0.037 0.003
N4D 0.058 0.031 0.037 0.003 0.034 -0.001
N5D 0.061 0.031 0.037 0.004 0.034 -0.002
N6D 0.062 0.047 0.032 0.006 0.034 0.002
C1D 0.066 0.046 0.038 0.011 0.028 -0.005
C2D 0.061 0.097 0.035 -0.002 0.025 -0.025
C3D 0.083 0.047 0.033 -0.004 0.035 -0.023
C4D 0.051 0.072 0.041 0.008 0.013 -0.02
C5D 0.091 0.117 0.038 0.001 0.032 -0.036
C6D 0.086 0.042 0.052 0.019 0.047 0.004
C7D 0.059 0.066 0.028 0.008 0.029 0.005
C8D 0.047 0.04 0.04 0.009 0.023 -0.011
C9D 0.191 0.05 0.081 -0.009 0.109 -0.012
C10D 0.06 0.063 0.039 0.008 0.032 -0.015
C11D 0.05 0.056 0.059 0.01 0.039 0.005
C12D 0.078 0.078 0.068 -0.01 0.059 0.008
C13D 0.073 0.065 0.052 0.007 0.049 0.013
C14D 0.073 0.109 0.09 0.049 0.06 0.039
C15D 0.105 0.108 0.068 0.009 0.069 0.011
N8D 0.05 0.068 0.04 0.006 0.026 0.006
C22D 0.049 0.055 0.038 0.015 0.029 0.006
N9D 0.046 0.058 0.039 0.017 0.027 0.007
C23D 0.039 0.047 0.042 0.011 0.023 0.009
Cu3B 0.0446 0.044 0.0338 0.0074 0.0252 0.0062
Cu3F 0.0446 0.044 0.0338 0.0074 0.0252 0.0062
N9B 0.046 0.058 0.039 0.017 0.027 0.007
N9F 0.046 0.058 0.039 0.017 0.027 0.007
loop_
_geom_bond_atom_site_label_1
_geom_bond_atom_site_label_2
_geom_bond_site_symmetry_1
_geom_bond_site_symmetry_2
W1 S1 1_555 1_555
S1 Cu1 1_555 1_555
S2 W1 1_555 1_555
S3 W1 1_555 1_555
Cu1 S3 1_555 1_555
Cu2 S2 1_555 1_555
Cu3 N7 1_555 1_555
B1 H1 1_555 1_555
N1 W1 1_555 1_555
N2 B1 1_555 1_555
N3 W1 1_555 1_555
N4 B1 1_555 1_555
N5 W1 1_555 1_555
N6 B1 1_555 1_555
N7 C16 1_555 1_555
C1 N1 1_555 1_555
C2 C1 1_555 1_555
H2 C2 1_555 1_555
C3 N2 1_555 1_555
C4 C1 1_555 1_555
H3 C4 1_555 1_555
H4 C4 1_555 1_555
H5 C4 1_555 1_555
C5 C3 1_555 1_555
H6 C5 1_555 1_555
H7 C5 1_555 1_555
H8 C5 1_555 1_555
C6 N3 1_555 1_555
C7 C6 1_555 1_555
H9 C7 1_555 1_555
C8 N4 1_555 1_555
C9 C6 1_555 1_555
H10 C9 1_555 1_555
H11 C9 1_555 1_555
H12 C9 1_555 1_555
C10 C8 1_555 1_555
H13 C10 1_555 1_555
H14 C10 1_555 1_555
H15 C10 1_555 1_555
C11 N5 1_555 1_555
C12 C11 1_555 1_555
H16 C12 1_555 1_555
C13 N6 1_555 1_555
C14 C11 1_555 1_555
H17 C14 1_555 1_555
H18 C14 1_555 1_555
H19 C14 1_555 1_555
C15 C13 1_555 1_555
H20 C15 1_555 1_555
H21 C15 1_555 1_555
H22 C15 1_555 1_555
C16 H23 1_555 1_555
C17 C16 1_555 1_555
H24 C17 1_555 1_555
C18 C17 1_555 1_555
C19 C18 1_555 1_555
H25 C19 1_555 1_555
C20 N7 1_555 1_555
H26 C20 1_555 1_555
C21 C18 1_555 1_555
H27 C21 1_555 1_555
N8 Cu3 1_555 1_555
C22 Cu1 1_555 1_555
N9 C23 1_555 1_555
C23 Cu2 1_555 1_555
N7D C16D 1_555 1_555
C16D H23D 1_555 1_555
C17D C16D 1_555 1_555
H24D C17D 1_555 1_555
C18D C17D 1_555 1_555
C19D C18D 1_555 1_555
H25D C19D 1_555 1_555
C20D N7D 1_555 1_555
H26D C20D 1_555 1_555
C21D C21 1_555 1_555
H27D C21D 1_555 1_555
W1D S1D 1_555 1_555
S1D Cu1D 1_555 1_555
S2D W1D 1_555 1_555
S3D W1D 1_555 1_555
Cu1D S3D 1_555 1_555
Cu2D S2D 1_555 1_555
Cu3D N7D 1_555 1_555
B1D H1D 1_555 1_555
N1D W1D 1_555 1_555
N2D B1D 1_555 1_555
N3D W1D 1_555 1_555
N4D B1D 1_555 1_555
N5D W1D 1_555 1_555
N6D B1D 1_555 1_555
C1D N1D 1_555 1_555
C2D C1D 1_555 1_555
H2D C2D 1_555 1_555
C3D N2D 1_555 1_555
C4D C1D 1_555 1_555
H3D C4D 1_555 1_555
H4D C4D 1_555 1_555
H5D C4D 1_555 1_555
C5D C3D 1_555 1_555
H6D C5D 1_555 1_555
H7D C5D 1_555 1_555
H8D C5D 1_555 1_555
C6D N3D 1_555 1_555
C7D C6D 1_555 1_555
H9D C7D 1_555 1_555
C8D N4D 1_555 1_555
C9D C6D 1_555 1_555
H10D C9D 1_555 1_555
H11D C9D 1_555 1_555
H12D C9D 1_555 1_555
C10D C8D 1_555 1_555
H13D C10D 1_555 1_555
H14D C10D 1_555 1_555
H15D C10D 1_555 1_555
C11D N5D 1_555 1_555
C12D C11D 1_555 1_555
H16D C12D 1_555 1_555
C13D N6D 1_555 1_555
C14D C11D 1_555 1_555
H17D C14D 1_555 1_555
H18D C14D 1_555 1_555
H19D C14D 1_555 1_555
C15D C13D 1_555 1_555
H20D C15D 1_555 1_555
H21D C15D 1_555 1_555
H22D C15D 1_555 1_555
N8D Cu3D 1_555 1_555
C22D Cu1D 1_555 1_555
N9D C23D 1_555 1_555
C23D Cu2D 1_555 1_555
Cu3B N9D 1_555 1_555
Cu3F N9 1_555 1_555
N9B Cu3D 1_555 1_555
N9F Cu3 1_555 1_555
S3 Cu2 1_555 1_555
N1 N2 1_555 1_555
N3 N4 1_555 1_555
N5 N6 1_555 1_555
C2 C3 1_555 1_555
C7 C8 1_555 1_555
C12 C13 1_555 1_555
C19 C20 1_555 1_555
N8 C22 1_555 1_555
C18D C21D 1_555 1_555
C19D C20D 1_555 1_555
S3D Cu2D 1_555 1_555
N1D N2D 1_555 1_555
N3D N4D 1_555 1_555
N5D N6D 1_555 1_555
C2D C3D 1_555 1_555
C7D C8D 1_555 1_555
C12D C13D 1_555 1_555
N8D C22D 1_555 1_555

#END
