
#######################################################################
#
#                 Cambridge Crystallographic Data Centre
#                                CCDC 
#
#######################################################################
#
# If this CIF has been generated from an entry in the Cambridge 
# Structural Database, then it will include bibliographic, chemical, 
# crystal, experimental, refinement or atomic coordinate data resulting 
# from the CCDC's data processing and validation procedures.
#
#######################################################################

data_QEFNAQ
_chemical_formula_moiety         '(C8 H14 Cl1 Cu1 N5 O8)n'
_symmetry_cell_setting           cubic
_symmetry_space_group_name_H-M   'P n -3 m'
_symmetry_Int_Tables_number      224
_space_group_name_Hall           '-P 4bc 2bc 3'
loop_
_symmetry_equiv_pos_site_id
_symmetry_equiv_pos_as_xyz
1 x,y,z
2 z,x,y
3 y,z,x
4 1/2+y,1/2+x,-z
5 1/2+y,-x,1/2+z
6 -y,1/2+x,1/2+z
7 1/2+x,1/2+z,-y
8 -x,1/2+z,1/2+y
9 1/2+x,-z,1/2+y
10 1/2+z,1/2+y,-x
11 1/2+z,-y,1/2+x
12 -z,1/2+y,1/2+x
13 1/2+x,1/2+y,-z
14 1/2+x,-y,1/2+z
15 -x,1/2+y,1/2+z
16 -z,1/2+x,1/2+y
17 1/2+z,1/2+x,-y
18 1/2+z,-x,1/2+y
19 1/2+y,-z,1/2+x
20 -y,1/2+z,1/2+x
21 1/2+y,1/2+z,-x
22 y,x,z
23 x,z,y
24 z,y,x
25 -x,-y,-z
26 -z,-x,-y
27 -y,-z,-x
28 1/2-y,1/2-x,z
29 1/2-y,x,1/2-z
30 y,1/2-x,1/2-z
31 1/2-x,1/2-z,y
32 x,1/2-z,1/2-y
33 1/2-x,z,1/2-y
34 1/2-z,1/2-y,x
35 1/2-z,y,1/2-x
36 z,1/2-y,1/2-x
37 1/2-x,1/2-y,z
38 1/2-x,y,1/2-z
39 x,1/2-y,1/2-z
40 z,1/2-x,1/2-y
41 1/2-z,1/2-x,y
42 1/2-z,x,1/2-y
43 1/2-y,z,1/2-x
44 y,1/2-z,1/2-x
45 1/2-y,1/2-z,x
46 -y,-x,-z
47 -x,-z,-y
48 -z,-y,-x
_cell_length_a                   15.7600(3)
_cell_length_b                   15.7600(3)
_cell_length_c                   15.7600(3)
_cell_angle_alpha                90
_cell_angle_beta                 90
_cell_angle_gamma                90
_cell_volume                     3914.43
loop_
_atom_site_label
_atom_site_type_symbol
_atom_site_fract_x
_atom_site_fract_y
_atom_site_fract_z
_atom_site_U_iso_or_equiv
_atom_site_thermal_displace_type
Cu1 Cu 0.5000 0.7500 0.2500 0.0576 Uani
N1 N 0.4116(3) 0.8205(3) 0.1940(3) 0.0623 Uani
C1 C 0.3722(4) 0.7812(6) 0.1278(4) 0.0577 Uani
O1 O 0.3958(3) 0.7092(4) 0.1042(3) 0.0753 Uani
C2 C 0.3287(5) 0.9427(7) 0.1713(5) 0.0863 Uani
H1 H 0.314(4) 0.997(5) 0.186(4) 0.0600 Uiso
C3 C 0.3914(5) 0.8992(4) 0.2138(5) 0.0760 Uani
H2 H 0.4203 0.9261 0.2577 0.0920 Uiso
N1G N 0.5884(3) 0.6940(3) 0.3205(3) 0.0623 Uani
N1LA N 0.4116(3) 0.6795(3) 0.3060(3) 0.0623 Uani
N1TA N 0.5884(3) 0.8060(3) 0.1795(3) 0.0623 Uani
N1HA N 0.3060(3) 0.8205(3) 0.0884(3) 0.0623 Uani
C3HA C 0.2862(5) 0.8992(4) 0.1086(5) 0.0760 Uani
C1G C 0.6278(4) 0.6278(4) 0.2812(6) 0.0577 Uani
C3G C 0.6086(5) 0.7138(5) 0.3992(4) 0.0760 Uani
Cu1R Cu 0.2500 0.7500 0.0000 0.0576 Uani
H2HA H 0.2423 0.9261 0.0797 0.0920 Uiso
N1Q N 0.6940(3) 0.5884(3) 0.3205(3) 0.0623 Uani
O1G O 0.6042(3) 0.6042(3) 0.2092(4) 0.0753 Uani
C2G C 0.6713(5) 0.6713(5) 0.4427(7) 0.0863 Uani
H2G H 0.5797 0.7577 0.4261 0.0920 Uiso
Cu1Q Cu 0.7500 0.5000 0.2500 0.0576 Uani
C3Q C 0.7138(5) 0.6086(5) 0.3992(4) 0.0760 Uani
H1G H 0.686(4) 0.686(4) 0.497(5) 0.0600 Uiso
H2Q H 0.7577 0.5797 0.4261 0.0920 Uiso
Cl1 Cl 0.3697(5) 0.3697(5) 0.1303(5) 0.0950 Uani
O2 O 0.327(6) 0.327(6) 0.173(6) 0.4500 Uiso
O4 O 0.311(3) 0.408(2) 0.092(2) 0.1400 Uiso
O4U O 0.408(2) 0.311(3) 0.092(2) 0.1400 Uiso
O4HA O 0.408(2) 0.408(2) 0.189(3) 0.1400 Uiso
N2 N 0.432(2) 0.5000 -0.068(2) 0.0750 Uiso
O5 O 0.396(2) 0.478(2) -0.054(2) 0.0860 Uiso
O5J O 0.446(2) 0.522(2) -0.104(2) 0.0860 Uiso
loop_
_atom_site_aniso_label
_atom_site_aniso_U_11
_atom_site_aniso_U_22
_atom_site_aniso_U_33
_atom_site_aniso_U_23
_atom_site_aniso_U_13
_atom_site_aniso_U_12
Cu1 0.0574(8) 0.0577(7) 0.0577(7) -0.0113(7) 0.000 0.000
N1 0.058(3) 0.062(3) 0.067(3) -0.006(2) -0.002(2) 0.000(2)
C1 0.054(3) 0.065(5) 0.054(3) -0.001(3) 0.007(4) 0.001(3)
O1 0.078(3) 0.070(4) 0.078(3) -0.014(2) 0.003(3) 0.014(2)
C2 0.101(5) 0.057(6) 0.101(5) -0.011(4) 0.000(7) 0.011(4)
C3 0.078(4) 0.072(4) 0.078(4) -0.014(4) 0.000(4) -0.007(4)
N1G 0.058 0.067 0.062 -0.006 0 0.002
N1LA 0.058 0.062 0.067 -0.006 0.002 0
N1TA 0.058 0.067 0.062 -0.006 0 -0.002
N1HA 0.067 0.062 0.058 0 -0.002 0.006
C3HA 0.078 0.072 0.078 0.007 0 0.014
C1G 0.054 0.054 0.065 -0.001 -0.001 -0.007
C3G 0.078 0.078 0.072 -0.014 0.007 0
Cu1R 0.0577 0.0577 0.0574 0 0 0.0113
N1Q 0.067 0.058 0.062 0 -0.006 0.002
O1G 0.078 0.078 0.07 -0.014 -0.014 -0.003
C2G 0.101 0.101 0.057 -0.011 -0.011 0
Cu1Q 0.0577 0.0574 0.0577 0 -0.0113 0
C3Q 0.078 0.078 0.072 0.007 -0.014 0
Cl1 0.095(3) 0.095(3) 0.095(3) -0.018(4) -0.018(4) 0.018(4)
loop_
_geom_bond_atom_site_label_1
_geom_bond_atom_site_label_2
_geom_bond_site_symmetry_1
_geom_bond_site_symmetry_2
Cu1 N1 1_555 1_555
N1 C1 1_555 1_555
C1 O1 1_555 1_555
C2 H1 1_555 1_555
C3 N1 1_555 1_555
H2 C3 1_555 1_555
Cl1 O2 1_555 1_555
O4 Cl1 1_555 1_555
N1G Cu1 1_555 1_555
N1LA Cu1 1_555 1_555
N1TA Cu1 1_555 1_555
N1HA C1 1_555 1_555
C3HA C2 1_555 1_555
O4U Cl1 1_555 1_555
O4HA Cl1 1_555 1_555
C1G N1G 1_555 1_555
C3G N1G 1_555 1_555
Cu1R N1HA 1_555 1_555
H2HA C3HA 1_555 1_555
N1Q C1G 1_555 1_555
O1G C1G 1_555 1_555
C2G C3G 1_555 1_555
H2G C3G 1_555 1_555
Cu1Q N1Q 1_555 1_555
C3Q N1Q 1_555 1_555
H1G C2G 1_555 1_555
H2Q C3Q 1_555 1_555
C2 C3 1_555 1_555
N1HA C3HA 1_555 1_555
C2G C3Q 1_555 1_555

#END
