
#######################################################################
#
#                 Cambridge Crystallographic Data Centre
#                                CCDC 
#
#######################################################################
#
# If this CIF has been generated from an entry in the Cambridge 
# Structural Database, then it will include bibliographic, chemical, 
# crystal, experimental, refinement or atomic coordinate data resulting 
# from the CCDC's data processing and validation procedures.
#
#######################################################################

data_TUBJAD
_chemical_formula_moiety         '(C20 H25 Cu1 N3 O10)n'
_symmetry_cell_setting           orthorhombic
_symmetry_space_group_name_H-M   'P n a 21'
_symmetry_Int_Tables_number      33
_space_group_name_Hall           'P 2c -2n'
loop_
_symmetry_equiv_pos_site_id
_symmetry_equiv_pos_as_xyz
1 x,y,z
2 -x,-y,1/2+z
3 1/2+x,1/2-y,z
4 1/2-x,1/2+y,1/2+z
_cell_length_a                   15.987(6)
_cell_length_b                   16.920(6)
_cell_length_c                   8.838(3)
_cell_angle_alpha                90
_cell_angle_beta                 90
_cell_angle_gamma                90
_cell_volume                     2390.68
loop_
_atom_site_label
_atom_site_type_symbol
_atom_site_fract_x
_atom_site_fract_y
_atom_site_fract_z
_atom_site_U_iso_or_equiv
_atom_site_thermal_displace_type
Cu1 Cu 0.80611(11) 0.21839(8) 0.9296(4) 0.0419 Uani
O1 O 0.8581(6) 0.1243(5) 1.0104(11) 0.0440 Uani
O2 O 0.7467(6) 0.0462(6) 0.9810(10) 0.0423 Uani
O3 O 0.7381(9) -0.1795(6) 1.3526(13) 0.0580 Uani
O4 O 0.8511(10) -0.2563(7) 1.3435(15) 0.0793 Uani
O5 O 0.9784(7) 0.2409(8) 0.2617(13) 0.0820 Uani
O6 O 0.9309(9) 0.2810(6) 0.9766(11) 0.0817 Uani
H1 H 0.9317 0.3066 1.0706 0.1230 Uiso
H2 H 0.9427 0.3197 0.9041 0.1230 Uiso
N1 N 0.8326(7) 0.1876(6) 0.7121(13) 0.0310 Uani
N2 N 1.0252(10) 0.3024(7) 0.4731(16) 0.0697 Uani
H3 H 1.0190 0.3107 0.5707 0.0840 Uiso
N3 N 1.2565(9) 0.2569(8) 0.1359(14) 0.0547 Uani
C1 C 0.8002(10) 0.1249(10) 0.6509(16) 0.0563 Uani
H4 H 0.7656 0.0929 0.7131 0.0680 Uiso
C2 C 0.8116(10) 0.1010(11) 0.5048(19) 0.0587 Uani
H5 H 0.7819 0.0577 0.4627 0.0710 Uiso
C3 C 0.8674(10) 0.1428(9) 0.425(2) 0.0567 Uani
H6 H 0.8791 0.1274 0.3235 0.0680 Uiso
C4 C 0.9087(11) 0.2079(11) 0.4853(16) 0.0597 Uani
C5 C 0.8879(9) 0.2291(8) 0.6388(16) 0.0407 Uani
H7 H 0.9143 0.2729 0.6859 0.0490 Uiso
C6 C 0.9742(12) 0.2571(12) 0.3989(18) 0.0657 Uani
C7 C 1.0953(13) 0.3400(9) 0.3856(19) 0.0797 Uani
H8 H 1.0995 0.3955 0.3719 0.0960 Uiso
C8 C 1.2834(12) 0.1897(9) 0.2071(18) 0.0580 Uani
H9 H 1.3271 0.1584 0.1659 0.0690 Uiso
C9 C 1.2450(12) 0.1694(11) 0.340(2) 0.0670 Uani
H10 H 1.2616 0.1222 0.3896 0.0800 Uiso
C10 C 1.1795(14) 0.2179(11) 0.407(3) 0.0893 Uani
H11 H 1.1543 0.2043 0.5004 0.1070 Uiso
C11 C 1.1548(12) 0.2863(10) 0.3250(17) 0.0577 Uani
C12 C 1.1961(11) 0.3016(9) 0.1924(16) 0.0523 Uani
H12 H 1.1803 0.3475 0.1372 0.0630 Uiso
C13 C 0.8173(11) 0.0581(8) 1.0261(14) 0.0390 Uani
C14 C 0.8126(14) -0.1909(8) 1.3275(15) 0.0503 Uani
C15 C 0.8669(8) -0.0017(7) 1.1215(15) 0.0323 Uani
C16 C 0.8228(9) -0.0656(7) 1.1757(14) 0.0360 Uani
H13 H 0.7648 -0.0715 1.1546 0.0430 Uiso
C17 C 0.8646(9) -0.1199(8) 1.2603(18) 0.0477 Uani
C18 C 0.9515(10) -0.1118(10) 1.2867(17) 0.0563 Uani
H14 H 0.9814 -0.1506 1.3423 0.0680 Uiso
C19 C 0.9901(10) -0.0489(9) 1.2321(17) 0.0510 Uani
H15 H 1.0483 -0.0430 1.2507 0.0610 Uiso
C20 C 0.9513(9) 0.0060(8) 1.1528(17) 0.0433 Uani
H16 H 0.9813 0.0508 1.1173 0.0520 Uiso
Cu1B Cu 1.30611(11) 0.28161(8) -0.0704(4) 0.0419 Uani
Cu1C Cu 0.69389(11) -0.28161(8) 1.4296(4) 0.0419 Uani
O3C O 0.7619(9) 0.3205(6) 0.8526(13) 0.0580 Uani
O4C O 0.6489(10) 0.2437(7) 0.8435(15) 0.0793 Uani
N3B N 0.7565(9) 0.2431(8) 1.1359(14) 0.0547 Uani
O7 O 0.8941(13) 0.4842(15) 0.612(4) 0.1153 Uani
H17 H 0.9229 0.5172 0.5578 0.1760 Uiso
H18 H 0.8507 0.4684 0.5613 0.1760 Uiso
O8 O 0.8430(9) 0.4631(6) 0.921(2) 0.1077 Uani
H19 H 0.8187 0.4179 0.9049 0.1610 Uiso
H20 H 0.8821 0.4704 0.8537 0.1610 Uiso
O9 O 0.9584(15) 0.456(2) 1.132(3) 0.1220 Uani
H21 H 0.9325 0.4509 1.2175 0.1870 Uiso
H22 H 0.9230 0.4502 1.0576 0.1870 Uiso
O10 O 1.0307(9) 0.3469(8) 0.7770(17) 0.0987 Uani
H23 H 1.0743 0.3164 0.7687 0.1480 Uiso
H24 H 1.0431 0.3876 0.8326 0.1480 Uiso
loop_
_atom_site_aniso_label
_atom_site_aniso_U_11
_atom_site_aniso_U_22
_atom_site_aniso_U_33
_atom_site_aniso_U_23
_atom_site_aniso_U_13
_atom_site_aniso_U_12
Cu1 0.0674(11) 0.0309(8) 0.0273(7) 0.0031(9) 0.0088(10) 0.0106(8)
O1 0.057(6) 0.037(6) 0.038(5) 0.012(4) 0.014(5) 0.015(5)
O2 0.042(6) 0.057(6) 0.028(5) 0.010(4) -0.013(4) 0.005(5)
O3 0.089(8) 0.045(6) 0.040(6) 0.008(5) -0.001(6) -0.031(7)
O4 0.139(11) 0.036(6) 0.063(7) 0.002(6) -0.035(8) -0.003(7)
O5 0.064(7) 0.156(12) 0.026(6) 0.012(7) 0.010(6) -0.003(8)
O6 0.156(12) 0.061(7) 0.028(6) -0.010(5) 0.002(7) -0.018(8)
N1 0.039(6) 0.033(6) 0.021(5) -0.010(5) 0.002(5) 0.016(5)
N2 0.105(12) 0.046(8) 0.058(10) -0.002(7) 0.042(9) -0.015(8)
N3 0.064(9) 0.068(9) 0.032(6) -0.018(7) -0.004(7) -0.020(8)
C1 0.082(12) 0.067(11) 0.020(7) 0.012(7) -0.003(8) 0.015(10)
C2 0.046(9) 0.080(11) 0.050(10) -0.031(9) -0.009(9) 0.002(9)
C3 0.080(11) 0.074(10) 0.016(6) -0.015(10) -0.003(10) 0.008(9)
C4 0.057(10) 0.101(14) 0.021(7) 0.007(8) 0.005(7) 0.037(10)
C5 0.042(9) 0.046(9) 0.034(8) 0.001(7) 0.007(7) 0.013(7)
C6 0.072(12) 0.088(13) 0.037(12) 0.007(9) 0.026(9) 0.028(11)
C7 0.135(16) 0.040(9) 0.064(13) 0.008(8) 0.057(12) -0.003(10)
C8 0.100(13) 0.035(8) 0.039(9) 0.012(7) 0.008(9) -0.025(8)
C9 0.085(13) 0.068(12) 0.048(10) 0.019(9) 0.016(10) 0.002(11)
C10 0.142(19) 0.080(12) 0.046(15) 0.016(11) 0.016(13) -0.035(13)
C11 0.086(12) 0.060(10) 0.027(7) -0.003(8) 0.016(9) -0.022(10)
C12 0.089(12) 0.042(8) 0.026(7) -0.007(6) 0.018(8) -0.016(9)
C13 0.064(11) 0.035(8) 0.018(6) 0.011(6) 0.021(7) 0.016(8)
C14 0.114(16) 0.020(7) 0.017(6) 0.007(5) -0.016(9) -0.023(10)
C15 0.040(8) 0.017(7) 0.040(8) -0.005(6) 0.007(7) 0.004(6)
C16 0.064(10) 0.023(6) 0.021(6) -0.002(5) -0.020(6) 0.002(7)
C17 0.057(10) 0.038(8) 0.048(9) -0.009(7) -0.009(8) 0.009(7)
C18 0.073(12) 0.062(11) 0.034(9) -0.019(8) -0.014(8) 0.036(10)
C19 0.062(11) 0.051(9) 0.040(8) -0.001(8) -0.004(8) 0.005(9)
C20 0.056(10) 0.035(8) 0.039(8) -0.015(6) -0.009(7) 0.008(8)
Cu1B 0.0674 0.0309 0.0273 -0.0031 0.0088 -0.0106
Cu1C 0.0674 0.0309 0.0273 0.0031 -0.0088 -0.0106
O3C 0.089 0.045 0.04 0.008 0.001 0.031
O4C 0.139 0.036 0.063 0.002 0.035 0.003
N3B 0.064 0.068 0.032 0.018 -0.004 0.02
O7 0.026(12) 0.10(2) 0.22(4) 0.08(2) 0.019(19) 0.015(14)
O8 0.121(10) 0.056(7) 0.146(14) 0.007(11) -0.046(13) 0.002(7)
O9 0.066(18) 0.23(4) 0.07(2) 0.03(2) -0.022(15) 0.03(2)
O10 0.115(11) 0.097(9) 0.084(10) 0.003(8) 0.001(9) 0.019(9)
loop_
_geom_bond_atom_site_label_1
_geom_bond_atom_site_label_2
_geom_bond_site_symmetry_1
_geom_bond_site_symmetry_2
Cu1 O1 1_555 1_555
O1 C13 1_555 1_555
O2 C13 1_555 1_555
O3 C14 1_555 1_555
O4 C14 1_555 1_555
O5 C6 1_555 1_555
O6 Cu1 1_555 1_555
H1 O6 1_555 1_555
H2 O6 1_555 1_555
N1 Cu1 1_555 1_555
N2 H3 1_555 1_555
N3 C8 1_555 1_555
C1 N1 1_555 1_555
H4 C1 1_555 1_555
C2 C1 1_555 1_555
H5 C2 1_555 1_555
C3 C2 1_555 1_555
H6 C3 1_555 1_555
C4 C3 1_555 1_555
C5 N1 1_555 1_555
H7 C5 1_555 1_555
C6 N2 1_555 1_555
C7 N2 1_555 1_555
H8 C7 1_555 1_555
C8 H9 1_555 1_555
C9 C8 1_555 1_555
H10 C9 1_555 1_555
C10 C9 1_555 1_555
H11 C10 1_555 1_555
C11 C7 1_555 1_555
C12 N3 1_555 1_555
H12 C12 1_555 1_555
C13 C15 1_555 1_555
C14 C17 1_555 1_555
C15 C16 1_555 1_555
C16 H13 1_555 1_555
C17 C16 1_555 1_555
C18 C17 1_555 1_555
H14 C18 1_555 1_555
C19 C18 1_555 1_555
H15 C19 1_555 1_555
C20 C15 1_555 1_555
H16 C20 1_555 1_555
O7 H17 1_555 1_555
H18 O7 1_555 1_555
O8 H19 1_555 1_555
H20 O8 1_555 1_555
O9 H21 1_555 1_555
H22 O9 1_555 1_555
O10 H23 1_555 1_555
H24 O10 1_555 1_555
Cu1B N3 1_555 1_555
Cu1C O3 1_555 1_555
O3C Cu1 1_555 1_555
O4C Cu1 1_555 1_555
N3B Cu1 1_555 1_555
O4 Cu1C 1_555 1_555
C4 C5 1_555 1_555
C4 C6 1_555 1_555
C10 C11 1_555 1_555
C11 C12 1_555 1_555
C19 C20 1_555 1_555

#END
