
#######################################################################
#
#                 Cambridge Crystallographic Data Centre
#                                CCDC 
#
#######################################################################
#
# If this CIF has been generated from an entry in the Cambridge 
# Structural Database, then it will include bibliographic, chemical, 
# crystal, experimental, refinement or atomic coordinate data resulting 
# from the CCDC's data processing and validation procedures.
#
#######################################################################

data_MUPYOM
_chemical_formula_moiety         '(C6 H8 Cd2 N10 O4)n'
_symmetry_cell_setting           orthorhombic
_symmetry_space_group_name_H-M   'P c a b'
_symmetry_Int_Tables_number      61
_space_group_name_Hall           '-P 2bc 2ac'
loop_
_symmetry_equiv_pos_site_id
_symmetry_equiv_pos_as_xyz
1 x,y,z
2 -x,1/2-y,1/2+z
3 1/2+x,-y,1/2-z
4 1/2-x,1/2+y,-z
5 -x,-y,-z
6 x,1/2+y,1/2-z
7 1/2-x,y,1/2+z
8 1/2+x,1/2-y,z
_cell_length_a                   8.0222(8)
_cell_length_b                   18.1099(18)
_cell_length_c                   21.954(2)
_cell_angle_alpha                90
_cell_angle_beta                 90
_cell_angle_gamma                90
_cell_volume                     3189.5
loop_
_atom_site_label
_atom_site_type_symbol
_atom_site_fract_x
_atom_site_fract_y
_atom_site_fract_z
Cd1 Cd 0.76819(11) 0.09132(5) 0.13978(4)
Cd2 Cd 0.96011(10) 0.25271(4) -0.10996(3)
C1 C 0.5898(16) 0.1667(7) 0.0205(5)
H1 H 0.4827 0.1636 0.0366
C2 C 0.8459(16) 0.1575(8) 0.0091(6)
H2 H 0.9576 0.1461 0.0155
C3 C 0.6671(17) -0.0736(7) 0.1109(7)
H3 H 0.5576 -0.0577 0.1061
C4 C 0.9227(17) -0.0756(7) 0.1257(6)
H4 H 1.0318 -0.0606 0.1329
C5 C 0.9094(16) 0.1560(7) 0.2655(6)
H5 H 1.0164 0.1390 0.2570
C6 C 0.6566(15) 0.1791(7) 0.2584(5)
H6 H 0.5478 0.1823 0.2440
N1 N 0.7272(12) 0.1394(6) 0.0488(5)
N2 N 0.7951(12) 0.1919(6) -0.0386(5)
N3 N 0.6252(12) 0.1981(6) -0.0322(4)
N4 N 0.7784(13) 0.1465(6) 0.2280(4)
N5 N 0.7041(13) 0.2064(6) 0.3106(4)
N6 N 0.8694(13) 0.1918(6) 0.3155(4)
N7 N 0.7887(14) -0.0286(5) 0.1231(5)
N8 N 0.7110(13) -0.1432(5) 0.1058(5)
N9 N 0.8772(12) -0.1443(6) 0.1166(5)
O4 O 0.4672(13) 0.0755(6) 0.1534(5)
H7 H 0.4325 0.0398 0.1316
H8 H 0.4314 0.1153 0.1367
N11 N 1.120(3) 0.1782(12) 0.1290(8)
O5 O 1.0678(12) 0.1107(5) 0.1297(4)
O7 O 1.013(3) 0.2215(12) 0.1340(9)
O8 O 1.261(3) 0.1884(12) 0.1276(10)
Cd2G Cd 0.46011(10) 0.24729(4) -0.10996(3)
Cd2F Cd 0.53989(10) 0.25271(4) 0.39004(3)
Cd2A Cd 1.03989(10) 0.24729(4) 0.39004(3)
Cd2C Cd 0.53989(10) -0.24729(4) 0.10996(3)
Cd2D Cd 1.03989(10) -0.25271(4) 0.10996(3)
N3G N 1.1252(12) 0.3019(6) -0.0322(4)
N5F N 0.7959(13) 0.2064(6) -0.1894(4)
N6A N 1.1306(13) 0.3082(6) -0.1845(4)
N8C N 0.7890(13) 0.3568(5) -0.1058(5)
N9D N 1.1228(12) 0.1443(6) -0.1166(5)
loop_
_geom_bond_atom_site_label_1
_geom_bond_atom_site_label_2
_geom_bond_site_symmetry_1
_geom_bond_site_symmetry_2
Cd1 N1 1_555 1_555
Cd2 N2 1_555 1_555
C1 H1 1_555 1_555
C2 H2 1_555 1_555
C3 H3 1_555 1_555
C4 H4 1_555 1_555
C5 H5 1_555 1_555
C6 H6 1_555 1_555
N1 C1 1_555 1_555
N2 C2 1_555 1_555
N3 C1 1_555 1_555
N4 Cd1 1_555 1_555
N5 C6 1_555 1_555
N6 C5 1_555 1_555
N7 Cd1 1_555 1_555
N8 C3 1_555 1_555
N9 C4 1_555 1_555
O4 Cd1 1_555 1_555
H7 O4 1_555 1_555
H8 O4 1_555 1_555
N11 O5 1_555 1_555
O5 Cd1 1_555 1_555
O7 N11 1_555 1_555
O8 N11 1_555 1_555
Cd2G N3 1_555 1_555
Cd2F N5 1_555 1_555
Cd2A N6 1_555 1_555
Cd2C N8 1_555 1_555
Cd2D N9 1_555 1_555
N3G Cd2 1_555 1_555
N5F Cd2 1_555 1_555
N6A Cd2 1_555 1_555
N8C Cd2 1_555 1_555
N9D Cd2 1_555 1_555
C2 N1 1_555 1_555
C3 N7 1_555 1_555
C4 N7 1_555 1_555
C5 N4 1_555 1_555
C6 N4 1_555 1_555
N2 N3 1_555 1_555
N5 N6 1_555 1_555
N8 N9 1_555 1_555

#END
