
#######################################################################
#
#                 Cambridge Crystallographic Data Centre
#                                CCDC 
#
#######################################################################
#
# If this CIF has been generated from an entry in the Cambridge 
# Structural Database, then it will include bibliographic, chemical, 
# crystal, experimental, refinement or atomic coordinate data resulting 
# from the CCDC's data processing and validation procedures.
#
#######################################################################

data_NUFBEX
_chemical_formula_moiety         '(C48 H24 O28 Zn5 2-)n'
_symmetry_cell_setting           triclinic
_symmetry_space_group_name_H-M   'P -1'
_symmetry_Int_Tables_number      2
_space_group_name_Hall           '-P 1'
loop_
_symmetry_equiv_pos_site_id
_symmetry_equiv_pos_as_xyz
1 x,y,z
2 -x,-y,-z
_cell_length_a                   9.3789(3)
_cell_length_b                   10.9247(4)
_cell_length_c                   18.8993(6)
_cell_angle_alpha                104.858(3)
_cell_angle_beta                 94.314(2)
_cell_angle_gamma                107.714(3)
_cell_volume                     1758.1
loop_
_atom_site_label
_atom_site_type_symbol
_atom_site_fract_x
_atom_site_fract_y
_atom_site_fract_z
Zn1 Zn 1.0000 1.0000 0.0000
Zn2 Zn 1.31589(4) 1.03581(4) 0.137863(19)
Zn3 Zn 1.04421(5) 1.36595(5) -0.23207(3)
O1 O 0.9727(2) 0.9969(2) 0.10852(10)
O2 O 1.2100(2) 1.1528(2) 0.03254(12)
O3 O 1.4269(2) 1.1380(2) 0.07846(13)
O4 O 1.1737(2) 1.0806(2) 0.20025(12)
C1 C 1.5918(3) 1.3018(3) 0.00147(15)
H1 H 1.6461 1.2785 0.0375
C2 C 1.3498(3) 1.1744(3) 0.03552(15)
C3 C 1.5889(3) 1.4171(3) -0.09106(16)
H2 H 1.6413 1.4727 -0.1187
C4 C 1.0310(3) 1.0328(3) 0.17492(15)
C5 C 1.6712(3) 1.3835(3) -0.03877(15)
C6 C 0.7774(3) 1.0081(3) 0.21318(15)
H3 H 0.7414 1.0125 0.1659
C7 C 1.3537(3) 1.2875(3) -0.06395(16)
H4 H 1.2459 1.2532 -0.0732
C8 C 0.9276(3) 1.0183(3) 0.23127(15)
C9 C 1.4340(3) 1.2546(3) -0.01077(15)
C10 C 1.8403(3) 1.4394(3) -0.02190(15)
C11 C 0.6800(3) 0.9915(3) 0.26416(16)
C12 C 0.9815(3) 1.0155(4) 0.30125(17)
H5 H 1.0854 1.0264 0.3141
C13 C 1.4309(3) 1.3699(3) -0.10317(16)
O5 O 1.9107(2) 1.15832(18) 0.01810(11)
O6 O 1.7894(2) 1.15586(19) -0.08923(11)
O7 O 0.4975(2) 1.0447(3) 0.19886(13)
O8 O 1.1974(3) 1.3703(3) -0.15792(15)
O9 O 0.4174(3) 0.9156(4) 0.27200(16)
C14 C 1.9305(3) 1.3647(3) -0.00736(15)
C15 C 1.9124(3) 1.5744(3) -0.01514(15)
H6 H 1.8537 1.6265 -0.0260
C16 C 1.8712(3) 1.2142(3) -0.02589(15)
O10 O 0.9265(3) 0.7332(3) 0.32803(16)
O11 O 0.8555(3) 1.2702(4) -0.20279(16)
C17 C 1.3405(4) 1.4104(4) -0.15678(19)
O12 O 1.4051(3) 1.4772(4) -0.1953(2)
C18 C 0.5182(3) 0.9816(4) 0.24468(17)
C19 C 0.7326(3) 0.9852(4) 0.33414(17)
H7 H 0.6652 0.9731 0.3688
C20 C 0.8836(4) 0.9967(4) 0.35269(17)
C21 C 0.9405(4) 0.9947(4) 0.42801(18)
O13 O 1.0357(5) 1.5405(4) -0.2369(3)
C22 C 1.0835(4) 0.9198(5) 0.5103(2)
H8 H 1.1418 0.8649 0.5169
C23 C 1.0252(4) 0.9108(5) 0.4384(2)
O14 O 1.1726(4) 0.7957(5) 0.37184(18)
C24 C 1.0454(5) 0.8065(5) 0.3752(2)
H9 H 0.889(6) 1.205(4) -0.220(2)
H10 H 0.823(6) 1.270(4) -0.1614(15)
O1A O 1.0273(2) 1.0031(2) 0.89148(10)
O4A O 0.8263(2) 0.9194(2) 0.79975(12)
C4A C 0.9690(3) 0.9672(3) 0.82508(15)
C6A C 1.2226(3) 0.9919(3) 0.78682(15)
H3A H 1.2586 0.9875 0.8341
C8A C 1.0724(3) 0.9817(3) 0.76873(15)
C11A C 1.3200(3) 1.0085(3) 0.73584(16)
C12A C 1.0185(3) 0.9845(4) 0.69875(17)
H5A H 0.9146 0.9736 0.6859
O7A O 1.5025(2) 0.9553(3) 0.80114(13)
O9A O 1.5826(3) 1.0844(4) 0.72800(16)
O10A O 1.0735(3) 1.2668(3) 0.67197(16)
C18A C 1.4818(3) 1.0184(4) 0.75532(17)
C19A C 1.2674(3) 1.0148(4) 0.66586(17)
H7A H 1.3348 1.0269 0.6312
C20A C 1.1164(4) 1.0033(4) 0.64731(17)
C21A C 1.0595(4) 1.0053(4) 0.57199(18)
C22A C 0.9165(4) 1.0802(5) 0.4897(2)
H8A H 0.8582 1.1351 0.4831
C23A C 0.9748(4) 1.0892(5) 0.5616(2)
O14A O 0.8274(4) 1.2043(5) 0.62816(18)
C24A C 0.9546(5) 1.1935(5) 0.6248(2)
O2A O 2.7900(2) 1.8472(2) -0.03254(12)
O3A O 2.5731(2) 1.8620(2) -0.07846(13)
C1A C 2.4082(3) 1.6982(3) -0.00147(15)
H1A H 2.3539 1.7215 -0.0375
C2A C 2.6502(3) 1.8256(3) -0.03552(15)
C3A C 2.4111(3) 1.5829(3) 0.09106(16)
H2A H 2.3587 1.5273 0.1187
C5A C 2.3288(3) 1.6165(3) 0.03877(15)
C7A C 2.6463(3) 1.7125(3) 0.06395(16)
H4A H 2.7541 1.7468 0.0732
C9A C 2.5660(3) 1.7454(3) 0.01077(15)
C10A C 2.1597(3) 1.5606(3) 0.02190(15)
C13A C 2.5691(3) 1.6301(3) 0.10317(16)
O8A O 2.8026(3) 1.6297(3) 0.15792(15)
C14A C 2.0695(3) 1.6353(3) 0.00736(15)
C15A C 2.0876(3) 1.4256(3) 0.01514(15)
H6A H 2.1463 1.3735 0.0260
C16A C 2.1288(3) 1.7858(3) 0.02589(15)
C17A C 2.6595(4) 1.5896(4) 0.15678(19)
O12A O 2.5949(3) 1.5228(4) 0.1953(2)
O5A O 2.0893(2) 1.84168(18) -0.01810(11)
O6A O 2.2106(2) 1.84414(19) 0.08923(11)
Zn3A Zn 0.95579(5) 0.63405(5) 0.23207(3)
O11A O 1.1445(3) 0.7298(4) 0.20279(16)
O13A O 0.9643(5) 0.4595(4) 0.2369(3)
H9A H 1.111(6) 0.795(4) 0.220(2)
H10A H 1.177(6) 0.730(4) 0.1614(15)
Zn2A Zn 1.68411(4) 0.96419(4) -0.137863(19)
Zn1_2 Zn 1.0000 1.0000 1.0000
Zn1_3 Zn 2.0000 1.0000 0.0000
Zn1_4 Zn 2.0000 2.0000 0.0000
Zn1_5 Zn 3.0000 2.0000 0.0000
Zn2_2 Zn 0.31589(4) 1.03581(4) 0.137863(19)
Zn2_3 Zn 2.31589(4) 2.03581(4) 0.137863(19)
Zn2A_2 Zn 0.68411(4) 0.96419(4) 0.862137(19)
Zn2A_3 Zn 1.68411(4) 0.96419(4) 0.862137(19)
Zn2A_4 Zn 2.68411(4) 1.96419(4) -0.137863(19)
Zn3_2 Zn 1.04421(5) 1.36595(5) 0.76793(3)
Zn3A_2 Zn 2.95579(5) 1.63405(5) 0.23207(3)
O1A_2 O 1.0273(2) 1.0031(2) -0.10852(10)
O2A_2 O 0.7900(2) 0.8472(2) -0.03254(12)
O3A_2 O 1.5731(2) 0.8620(2) -0.07846(13)
O4A_2 O 1.8263(2) 0.9194(2) -0.20025(12)
O5_2 O 0.9107(2) 1.15832(18) 0.01810(11)
O5A_2 O 1.0893(2) 0.84168(18) -0.01810(11)
O6A_2 O 1.2106(2) 0.84414(19) 0.08923(11)
O7_2 O 1.4975(2) 1.0447(3) 0.19886(13)
O7A_2 O 1.5025(2) 0.9553(3) -0.19886(13)
O8A_2 O 0.8026(3) 0.6297(3) 0.15792(15)
O10A_2 O 1.0735(3) 1.2668(3) -0.32803(16)
loop_
_geom_bond_atom_site_label_1
_geom_bond_atom_site_label_2
_geom_bond_site_symmetry_1
_geom_bond_site_symmetry_2
Zn1 O1 1_555 1_555
Zn2 O3 1_555 1_555
Zn3 O8 1_555 1_555
O1 C4 1_555 1_555
O2 Zn1 1_555 1_555
O3 C2 1_555 1_555
O4 Zn2 1_555 1_555
C1 H1 1_555 1_555
C2 O2 1_555 1_555
C3 H2 1_555 1_555
C4 O4 1_555 1_555
C5 C1 1_555 1_555
C6 H3 1_555 1_555
C7 H4 1_555 1_555
C8 C4 1_555 1_555
C9 C1 1_555 1_555
C10 C5 1_555 1_555
C11 C6 1_555 1_555
C12 C8 1_555 1_555
H5 C12 1_555 1_555
C13 C3 1_555 1_555
O5 C16 1_555 1_555
O6 C16 1_555 1_555
O7 C18 1_555 1_555
O8 C17 1_555 1_555
O9 C18 1_555 1_555
C14 C10 1_555 1_555
C15 C10 1_555 1_555
H6 C15 1_555 1_555
C16 C14 1_555 1_555
O10 C24 1_555 1_555
O11 Zn3 1_555 1_555
C17 C13 1_555 1_555
O12 C17 1_555 1_555
C18 C11 1_555 1_555
C19 C11 1_555 1_555
H7 C19 1_555 1_555
C20 C12 1_555 1_555
C21 C20 1_555 1_555
O13 Zn3 1_555 1_555
C22 H8 1_555 1_555
C23 C21 1_555 1_555
O14 C24 1_555 1_555
C24 C23 1_555 1_555
H9 O11 1_555 1_555
H10 O11 1_555 1_555
O1A C4A 1_555 1_555
O4A C4A 1_555 1_555
C4A C8A 1_555 1_555
C6A H3A 1_555 1_555
C8A C6A 1_555 1_555
C11A C6A 1_555 1_555
C12A C8A 1_555 1_555
H5A C12A 1_555 1_555
O7A C18A 1_555 1_555
O9A C18A 1_555 1_555
O10A C24A 1_555 1_555
C18A C11A 1_555 1_555
C19A C11A 1_555 1_555
H7A C19A 1_555 1_555
C20A C12A 1_555 1_555
C21A C22 1_555 1_555
C22A C21 1_555 1_555
H8A C22A 1_555 1_555
C23A C21A 1_555 1_555
O14A C24A 1_555 1_555
C24A C23A 1_555 1_555
O2A C2A 1_555 1_555
O3A C2A 1_555 1_555
C1A H1A 1_555 1_555
C2A C9A 1_555 1_555
C3A H2A 1_555 1_555
C5A C1A 1_555 1_555
C7A H4A 1_555 1_555
C9A C1A 1_555 1_555
C10A C5A 1_555 1_555
C13A C3A 1_555 1_555
O8A C17A 1_555 1_555
C14A C15 1_555 1_555
C15A C14 1_555 1_555
H6A C15A 1_555 1_555
C16A C14A 1_555 1_555
C17A C13A 1_555 1_555
O12A C17A 1_555 1_555
O5A C16A 1_555 1_555
O6A C16A 1_555 1_555
Zn3A O10 1_555 1_555
O11A Zn3A 1_555 1_555
O13A Zn3A 1_555 1_555
H9A O11A 1_555 1_555
H10A O11A 1_555 1_555
Zn2A O6 1_555 1_555
Zn1_2 O1A 1_555 1_555
Zn1_3 O5 1_555 1_555
Zn1_4 O5A 1_555 1_555
Zn1_5 O2A 1_555 1_555
Zn2_2 O7 1_555 1_555
Zn2_3 O6A 1_555 1_555
Zn2A_2 O4A 1_555 1_555
Zn2A_3 O7A 1_555 1_555
Zn2A_4 O3A 1_555 1_555
Zn3_2 O10A 1_555 1_555
Zn3A_2 O8A 1_555 1_555
O1A_2 Zn1 1_555 1_555
O2A_2 Zn1 1_555 1_555
O3A_2 Zn2A 1_555 1_555
O4A_2 Zn2A 1_555 1_555
O5_2 Zn1 1_555 1_555
O5A_2 Zn1 1_555 1_555
O6A_2 Zn2 1_555 1_555
O7_2 Zn2 1_555 1_555
O7A_2 Zn2A 1_555 1_555
O8A_2 Zn3A 1_555 1_555
O10A_2 Zn3 1_555 1_555
C2 C9 1_555 1_555
C3 C5 1_555 1_555
C6 C8 1_555 1_555
C7 C9 1_555 1_555
C7 C13 1_555 1_555
C19 C20 1_555 1_555
C22 C23 1_555 1_555
C19A C20A 1_555 1_555
C20A C21A 1_555 1_555
C22A C23A 1_555 1_555
C3A C5A 1_555 1_555
C7A C9A 1_555 1_555
C7A C13A 1_555 1_555
C10A C14A 1_555 1_555
C10A C15A 1_555 1_555

#END
