
#######################################################################
#
#                 Cambridge Crystallographic Data Centre
#                                CCDC 
#
#######################################################################
#
# If this CIF has been generated from an entry in the Cambridge 
# Structural Database, then it will include bibliographic, chemical, 
# crystal, experimental, refinement or atomic coordinate data resulting 
# from the CCDC's data processing and validation procedures.
#
#######################################################################

data_EWESIJ
_chemical_formula_moiety         '(C36 H24 Cu4 I2 N18 S4 W1)n'
_symmetry_cell_setting           orthorhombic
_symmetry_space_group_name_H-M   'C c c a'
_symmetry_Int_Tables_number      68
_space_group_name_Hall           '-C 2a 2ac'
loop_
_symmetry_equiv_pos_site_id
_symmetry_equiv_pos_as_xyz
1 x,y,z
2 1/2-x,-y,z
3 -x,y,1/2-z
4 1/2+x,-y,1/2-z
5 1/2+x,1/2+y,z
6 -x,1/2-y,z
7 1/2-x,1/2+y,1/2-z
8 x,1/2-y,1/2-z
9 -x,-y,-z
10 1/2+x,y,-z
11 x,-y,1/2+z
12 1/2-x,y,1/2+z
13 1/2-x,1/2-y,-z
14 x,1/2+y,-z
15 1/2+x,1/2-y,1/2+z
16 -x,1/2+y,1/2+z
_cell_length_a                   26.860(6)
_cell_length_b                   31.492(7)
_cell_length_c                   13.905(5)
_cell_angle_alpha                90
_cell_angle_beta                 90
_cell_angle_gamma                90
_cell_volume                     11761.9
loop_
_atom_site_label
_atom_site_type_symbol
_atom_site_fract_x
_atom_site_fract_y
_atom_site_fract_z
_atom_site_U_iso_or_equiv
_atom_site_thermal_displace_type
C1 C 0.1532(5) 0.3555(3) 0.2703(6) 0.0700 Uani
H1 H 0.1377 0.3536 0.3299 0.0840 Uiso
C2 C 0.1532(5) 0.3194(3) 0.2122(7) 0.0840 Uani
H2 H 0.1372 0.2947 0.2315 0.1010 Uiso
C3 C 0.1780(5) 0.3217(3) 0.1239(7) 0.0720 Uani
C4 C 0.1982(4) 0.3605(3) 0.0981(6) 0.0590 Uani
H3 H 0.2131 0.3636 0.0381 0.0710 Uiso
C5 C 0.1967(4) 0.3948(3) 0.1605(6) 0.0540 Uani
H4 H 0.2118 0.4202 0.1423 0.0640 Uiso
C6 C 0.1804(5) 0.2843(3) 0.0602(7) 0.0830 Uani
C7 C 0.1834(6) 0.2203(4) -0.0527(7) 0.0883 Uani
C8 C 0.1821(5) 0.1837(3) -0.1205(7) 0.0747 Uani
C9 C 0.1647(4) 0.1447(3) -0.0941(7) 0.0697 Uani
H5 H 0.1525 0.1405 -0.0322 0.0830 Uiso
C10 C 0.1650(4) 0.1117(4) -0.1581(7) 0.0667 Uani
H6 H 0.1524 0.0855 -0.1391 0.0800 Uiso
C11 C 0.2005(5) 0.1530(3) -0.2733(6) 0.0807 Uani
H7 H 0.2126 0.1560 -0.3356 0.0970 Uiso
C12 C 0.2023(6) 0.1885(3) -0.2132(7) 0.0917 Uani
H8 H 0.2161 0.2140 -0.2335 0.1100 Uiso
C13 C 0.3952(4) 0.3914(3) 0.4615(7) 0.0560 Uani
H9 H 0.3914 0.3685 0.4199 0.0670 Uiso
C14 C 0.4287(4) 0.3875(3) 0.5365(7) 0.0640 Uani
H10 H 0.4467 0.3626 0.5454 0.0770 Uiso
C15 C 0.4346(4) 0.4213(3) 0.5974(6) 0.0543 Uani
C16 C 0.4067(4) 0.4586(4) 0.5817(6) 0.0587 Uani
H11 H 0.4098 0.4823 0.6211 0.0710 Uiso
C17 C 0.3749(4) 0.4579(3) 0.5058(7) 0.0603 Uani
H12 H 0.3562 0.4823 0.4950 0.0720 Uiso
C18 C 0.4692(3) 0.4203(3) 0.6794(7) 0.0533 Uani
Cu1 Cu 0.17220(5) 0.44425(4) 0.34159(8) 0.0520 Uani
Cu2 Cu 0.31435(4) 0.43401(4) 0.34234(8) 0.0495 Uani
I1 I 0.09203(3) 0.43123(3) 0.43711(5) 0.0712 Uani
N1 N 0.1741(3) 0.3926(2) 0.2466(5) 0.0580 Uani
N2 N 0.1637(6) 0.2478(3) 0.0929(7) 0.1213 Uani
N3 N 0.1643(5) 0.2147(3) 0.0353(7) 0.1130 Uani
N4 N 0.2051(6) 0.2566(3) -0.0834(6) 0.1080 Uani
N5 N 0.2033(5) 0.2896(3) -0.0243(6) 0.1077 Uani
N6 N 0.1832(3) 0.1160(2) -0.2484(5) 0.0520 Uani
N7 N 0.3681(3) 0.4260(2) 0.4457(5) 0.0517 Uani
N8 N 0.4844(3) 0.3827(3) 0.7132(6) 0.0620 Uani
N9 N 0.4836(3) 0.4580(3) 0.7125(6) 0.0723 Uani
S1 S 0.24330(9) 0.44219(8) 0.43478(16) 0.0477 Uani
S2 S 0.18188(9) 0.50521(7) 0.25135(17) 0.0509 Uani
W1 W 0.2500 0.5000 0.34262(3) 0.0390 Uani
C1L C 0.3468(5) 0.1445(3) -0.2703(6) 0.0700 Uani
H1L H 0.3623 0.1464 -0.3299 0.0840 Uiso
C2L C 0.3468(5) 0.1806(3) -0.2122(7) 0.0840 Uani
H2L H 0.3628 0.2053 -0.2315 0.1010 Uiso
C3L C 0.3220(5) 0.1783(3) -0.1239(7) 0.0720 Uani
C4L C 0.3018(4) 0.1395(3) -0.0981(6) 0.0590 Uani
H3L H 0.2869 0.1364 -0.0381 0.0710 Uiso
C5L C 0.3033(4) 0.1052(3) -0.1605(6) 0.0540 Uani
H4L H 0.2882 0.0798 -0.1423 0.0640 Uiso
C6L C 0.3196(5) 0.2157(3) -0.0602(7) 0.0830 Uani
C7L C 0.3166(6) 0.2797(4) 0.0527(7) 0.0883 Uani
C8L C 0.3179(5) 0.3163(3) 0.1205(7) 0.0747 Uani
C9L C 0.3353(4) 0.3553(3) 0.0941(7) 0.0697 Uani
H5L H 0.3475 0.3595 0.0322 0.0830 Uiso
C10L C 0.3350(4) 0.3883(4) 0.1581(7) 0.0667 Uani
H6L H 0.3476 0.4145 0.1391 0.0800 Uiso
C11L C 0.2995(5) 0.3470(3) 0.2733(6) 0.0807 Uani
H7L H 0.2874 0.3440 0.3356 0.0970 Uiso
C12L C 0.2977(6) 0.3115(3) 0.2132(7) 0.0917 Uani
H8L H 0.2839 0.2860 0.2335 0.1100 Uiso
C13B C 0.6048(4) 0.3914(3) 1.0385(7) 0.0560 Uani
H9B H 0.6086 0.3685 1.0801 0.0670 Uiso
C14B C 0.5713(4) 0.3875(3) 0.9635(7) 0.0640 Uani
H10B H 0.5533 0.3626 0.9546 0.0770 Uiso
C15B C 0.5654(4) 0.4213(3) 0.9026(6) 0.0543 Uani
C16B C 0.5933(4) 0.4586(4) 0.9183(6) 0.0587 Uani
H11B H 0.5902 0.4823 0.8789 0.0710 Uiso
C17B C 0.6251(4) 0.4579(3) 0.9942(7) 0.0603 Uani
H12B H 0.6438 0.4823 1.0050 0.0720 Uiso
C18B C 0.5308(3) 0.4203(3) 0.8206(7) 0.0533 Uani
Cu1A Cu 0.32780(5) 0.55575(4) 0.34159(8) 0.0520 Uani
Cu1L Cu 0.32780(5) 0.05575(4) -0.34159(8) 0.0520 Uani
Cu2A Cu 0.18565(4) 0.56599(4) 0.34234(8) 0.0495 Uani
Cu2L Cu 0.18565(4) 0.06599(4) -0.34234(8) 0.0495 Uani
Cu2B Cu 0.68565(4) 0.43401(4) 1.15766(8) 0.0495 Uani
I1A I 0.40797(3) 0.56877(3) 0.43711(5) 0.0712 Uani
N1L N 0.3259(3) 0.1074(2) -0.2466(5) 0.0580 Uani
N1A N 0.3259(3) 0.6074(2) 0.2466(5) 0.0580 Uani
N2L N 0.3363(6) 0.2522(3) -0.0929(7) 0.1213 Uani
N3L N 0.3357(5) 0.2853(3) -0.0353(7) 0.1130 Uani
N4L N 0.2949(6) 0.2434(3) 0.0834(6) 0.1080 Uani
N5L N 0.2967(5) 0.2104(3) 0.0243(6) 0.1077 Uani
N6L N 0.3168(3) 0.3840(2) 0.2484(5) 0.0520 Uani
N6M N 0.1832(3) 0.6160(2) 0.2484(5) 0.0520 Uani
N7B N 0.6319(3) 0.4260(2) 1.0543(5) 0.0517 Uani
N7A N 0.1319(3) 0.5740(2) 0.4457(5) 0.0517 Uani
N8B N 0.5156(3) 0.3827(3) 0.7868(6) 0.0620 Uani
N9B N 0.5164(3) 0.4580(3) 0.7875(6) 0.0723 Uani
S1A S 0.25670(9) 0.55781(8) 0.43478(16) 0.0477 Uani
S2A S 0.31812(9) 0.49479(7) 0.25135(17) 0.0509 Uani
loop_
_atom_site_aniso_label
_atom_site_aniso_U_11
_atom_site_aniso_U_22
_atom_site_aniso_U_33
_atom_site_aniso_U_23
_atom_site_aniso_U_13
_atom_site_aniso_U_12
C1 0.136(9) 0.048(5) 0.026(4) 0.001(4) 0.015(5) -0.013(6)
C2 0.155(11) 0.048(6) 0.049(6) -0.001(4) 0.028(6) -0.022(7)
C3 0.136(10) 0.042(5) 0.038(5) -0.001(4) 0.013(6) -0.006(6)
C4 0.105(8) 0.044(5) 0.028(4) 0.002(3) 0.009(5) -0.004(5)
C5 0.081(7) 0.036(4) 0.045(5) 0.003(4) -0.004(4) -0.012(4)
C6 0.169(12) 0.048(5) 0.032(5) -0.006(4) 0.006(6) -0.024(7)
C7 0.179(13) 0.048(5) 0.038(5) -0.007(4) 0.015(7) -0.007(7)
C8 0.144(10) 0.042(5) 0.038(5) -0.007(4) 0.005(6) 0.004(6)
C9 0.100(8) 0.054(5) 0.055(6) -0.013(4) 0.022(6) -0.010(6)
C10 0.085(7) 0.056(6) 0.059(6) -0.014(4) 0.012(5) -0.008(6)
C11 0.175(12) 0.046(5) 0.021(4) -0.003(4) 0.005(6) -0.003(6)
C12 0.205(14) 0.030(5) 0.040(5) 0.003(4) 0.018(7) 0.005(7)
C13 0.064(6) 0.048(5) 0.056(6) -0.011(4) -0.012(4) 0.008(4)
C14 0.070(6) 0.061(6) 0.061(6) -0.005(5) -0.019(5) 0.007(5)
C15 0.054(5) 0.066(6) 0.043(5) 0.001(4) -0.005(4) -0.003(4)
C16 0.072(6) 0.061(6) 0.043(5) -0.005(4) -0.006(4) 0.001(5)
C17 0.081(7) 0.054(5) 0.046(5) -0.004(4) -0.012(4) 0.010(5)
C18 0.055(5) 0.061(5) 0.044(5) -0.005(4) -0.007(4) -0.006(4)
Cu1 0.0706(7) 0.0407(6) 0.0448(7) -0.0011(5) -0.0060(5) -0.0021(5)
Cu2 0.0690(7) 0.0398(6) 0.0397(6) -0.0025(5) -0.0034(5) 0.0074(5)
I1 0.0716(5) 0.0735(5) 0.0686(5) -0.0024(4) 0.0008(4) -0.0054(4)
N1 0.088(5) 0.049(4) 0.037(4) -0.002(3) 0.001(3) -0.009(4)
N2 0.266(15) 0.046(5) 0.052(6) -0.013(4) 0.049(7) -0.028(8)
N3 0.243(14) 0.045(5) 0.051(5) -0.014(4) 0.040(7) -0.029(7)
N4 0.245(14) 0.049(5) 0.030(5) -0.006(4) 0.022(6) -0.019(7)
N5 0.245(14) 0.045(5) 0.033(5) -0.004(4) 0.022(6) -0.021(7)
N6 0.078(5) 0.037(4) 0.041(4) -0.007(3) -0.004(4) 0.003(4)
N7 0.069(4) 0.044(4) 0.042(4) -0.005(3) -0.001(3) 0.007(3)
N8 0.070(6) 0.065(5) 0.051(5) 0.003(4) -0.018(4) -0.007(4)
N9 0.097(7) 0.058(5) 0.062(6) 0.004(4) -0.032(5) 0.001(5)
S1 0.0621(14) 0.0456(13) 0.0355(11) 0.0101(9) -0.0022(10) 0.0042(10)
S2 0.074 0.0417 0.0371 0.0033 -0.0126 0.0049
W1 0.0599(3) 0.0308(3) 0.0263(3) 0.000 0.000 0.0032(2)
C1L 0.136 0.048 0.026 0.001 0.015 -0.013
C2L 0.155 0.048 0.049 -0.001 0.028 -0.022
C3L 0.136 0.042 0.038 -0.001 0.013 -0.006
C4L 0.105 0.044 0.028 0.002 0.009 -0.004
C5L 0.081 0.036 0.045 0.003 -0.004 -0.012
C6L 0.169 0.048 0.032 -0.006 0.006 -0.024
C7L 0.179 0.048 0.038 -0.007 0.015 -0.007
C8L 0.144 0.042 0.038 -0.007 0.005 0.004
C9L 0.1 0.054 0.055 -0.013 0.022 -0.01
C10L 0.085 0.056 0.059 -0.014 0.012 -0.008
C11L 0.175 0.046 0.021 -0.003 0.005 -0.003
C12L 0.205 0.03 0.04 0.003 0.018 0.005
C13B 0.064 0.048 0.056 0.011 -0.012 -0.008
C14B 0.07 0.061 0.061 0.005 -0.019 -0.007
C15B 0.054 0.066 0.043 -0.001 -0.005 0.003
C16B 0.072 0.061 0.043 0.005 -0.006 -0.001
C17B 0.081 0.054 0.046 0.004 -0.012 -0.01
C18B 0.055 0.061 0.044 0.005 -0.007 0.006
Cu1A 0.0706 0.0407 0.0448 0.0011 0.006 -0.0021
Cu1L 0.0706 0.0407 0.0448 -0.0011 -0.006 -0.0021
Cu2A 0.069 0.0398 0.0397 0.0025 0.0034 0.0074
Cu2L 0.069 0.0398 0.0397 -0.0025 -0.0034 0.0074
Cu2B 0.069 0.0398 0.0397 0.0025 -0.0034 -0.0074
I1A 0.0716 0.0735 0.0686 0.0024 -0.0008 -0.0054
N1L 0.088 0.049 0.037 -0.002 0.001 -0.009
N1A 0.088 0.049 0.037 0.002 -0.001 -0.009
N2L 0.266 0.046 0.052 -0.013 0.049 -0.028
N3L 0.243 0.045 0.051 -0.014 0.04 -0.029
N4L 0.245 0.049 0.03 -0.006 0.022 -0.019
N5L 0.245 0.045 0.033 -0.004 0.022 -0.021
N6L 0.078 0.037 0.041 -0.007 -0.004 0.003
N6M 0.078 0.037 0.041 0.007 0.004 0.003
N7B 0.069 0.044 0.042 0.005 -0.001 -0.007
N7A 0.069 0.044 0.042 0.005 0.001 0.007
N8B 0.07 0.065 0.051 -0.003 -0.018 0.007
N9B 0.097 0.058 0.062 -0.004 -0.032 -0.001
S1A 0.0621 0.0456 0.0355 -0.0101 0.0022 0.0042
S2A 0.0740(15) 0.0417(13) 0.0371(11) -0.0033(9) 0.0126(10) 0.0049(11)
loop_
_geom_bond_atom_site_label_1
_geom_bond_atom_site_label_2
_geom_bond_site_symmetry_1
_geom_bond_site_symmetry_2
C1 H1 1_555 1_555
C2 C1 1_555 1_555
H2 C2 1_555 1_555
C3 C2 1_555 1_555
C4 C3 1_555 1_555
H3 C4 1_555 1_555
C5 C4 1_555 1_555
H4 C5 1_555 1_555
C6 C3 1_555 1_555
C7 C8 1_555 1_555
C8 C9 1_555 1_555
C9 H5 1_555 1_555
C10 C9 1_555 1_555
H6 C10 1_555 1_555
C11 H7 1_555 1_555
C12 C8 1_555 1_555
H8 C12 1_555 1_555
C13 H9 1_555 1_555
C14 C13 1_555 1_555
H10 C14 1_555 1_555
C15 C14 1_555 1_555
C16 C15 1_555 1_555
H11 C16 1_555 1_555
C17 C16 1_555 1_555
H12 C17 1_555 1_555
C18 C15 1_555 1_555
Cu1 I1 1_555 1_555
Cu2 N7 1_555 1_555
N1 C1 1_555 1_555
N2 C6 1_555 1_555
N3 C7 1_555 1_555
N4 C7 1_555 1_555
N5 C6 1_555 1_555
N6 C10 1_555 1_555
N7 C13 1_555 1_555
N8 C18 1_555 1_555
N9 C18 1_555 1_555
S1 Cu1 1_555 1_555
S2 Cu1 1_555 1_555
W1 S1 1_555 1_555
C1L H1L 1_555 1_555
C2L C1L 1_555 1_555
H2L C2L 1_555 1_555
C3L C2L 1_555 1_555
C4L C3L 1_555 1_555
H3L C4L 1_555 1_555
C5L C4L 1_555 1_555
H4L C5L 1_555 1_555
C6L C3L 1_555 1_555
C7L C8L 1_555 1_555
C8L C9L 1_555 1_555
C9L H5L 1_555 1_555
C10L C9L 1_555 1_555
H6L C10L 1_555 1_555
C11L H7L 1_555 1_555
C12L C8L 1_555 1_555
H8L C12L 1_555 1_555
C13B H9B 1_555 1_555
C14B C13B 1_555 1_555
H10B C14B 1_555 1_555
C15B C14B 1_555 1_555
C16B C15B 1_555 1_555
H11B C16B 1_555 1_555
C17B C16B 1_555 1_555
H12B C17B 1_555 1_555
C18B C15B 1_555 1_555
Cu1A I1A 1_555 1_555
Cu1L N1L 1_555 1_555
Cu2A S2 1_555 1_555
Cu2L N6 1_555 1_555
Cu2B N7B 1_555 1_555
N1L C1L 1_555 1_555
N1A Cu1A 1_555 1_555
N2L C6L 1_555 1_555
N3L C7L 1_555 1_555
N4L C7L 1_555 1_555
N5L C6L 1_555 1_555
N6L Cu2 1_555 1_555
N6M Cu2A 1_555 1_555
N7B C13B 1_555 1_555
N7A Cu2A 1_555 1_555
N8B N8 1_555 1_555
N9B N9 1_555 1_555
S1A W1 1_555 1_555
S2A Cu2 1_555 1_555
C5 N1 1_555 1_555
C11 C12 1_555 1_555
C11 N6 1_555 1_555
C17 N7 1_555 1_555
Cu1 N1 1_555 1_555
Cu2 S1 1_555 1_555
N2 N3 1_555 1_555
N4 N5 1_555 1_555
S2 W1 1_555 1_555
W1 S2A 1_555 1_555
C5L N1L 1_555 1_555
C10L N6L 1_555 1_555
C11L C12L 1_555 1_555
C11L N6L 1_555 1_555
C17B N7B 1_555 1_555
C18B N8B 1_555 1_555
C18B N9B 1_555 1_555
Cu1A S1A 1_555 1_555
Cu1A S2A 1_555 1_555
Cu2A S1A 1_555 1_555
N2L N3L 1_555 1_555
N4L N5L 1_555 1_555

#END
