
#######################################################################
#
#                 Cambridge Crystallographic Data Centre
#                                CCDC 
#
#######################################################################
#
# If this CIF has been generated from an entry in the Cambridge 
# Structural Database, then it will include bibliographic, chemical, 
# crystal, experimental, refinement or atomic coordinate data resulting 
# from the CCDC's data processing and validation procedures.
#
#######################################################################

data_FAGXOD
_chemical_formula_moiety         '(C26 H26 N2 O7 Zn1)n'
_symmetry_cell_setting           orthorhombic
_symmetry_space_group_name_H-M   'P b c n'
_symmetry_Int_Tables_number      60
_space_group_name_Hall           '-P 2n 2ab'
loop_
_symmetry_equiv_pos_site_id
_symmetry_equiv_pos_as_xyz
1 x,y,z
2 1/2-x,1/2-y,1/2+z
3 1/2+x,1/2-y,-z
4 -x,y,1/2-z
5 -x,-y,-z
6 1/2+x,1/2+y,1/2-z
7 1/2-x,1/2+y,z
8 x,-y,1/2+z
_cell_length_a                   16.7153(8)
_cell_length_b                   8.4558(4)
_cell_length_c                   35.4943(17)
_cell_angle_alpha                90
_cell_angle_beta                 90
_cell_angle_gamma                90
_cell_volume                     5016.81
loop_
_atom_site_label
_atom_site_type_symbol
_atom_site_fract_x
_atom_site_fract_y
_atom_site_fract_z
_atom_site_U_iso_or_equiv
_atom_site_thermal_displace_type
Zn1 Zn 0.478029(16) 0.61268(4) 0.949785(8) 0.0226 Uani
O1 O 0.51691(10) 0.3976(2) 0.96473(5) 0.0260 Uani
O2 O 0.59506(11) 0.3133(2) 1.01118(5) 0.0309 Uani
O3 O 0.92988(11) 0.2314(3) 0.93130(6) 0.0351 Uani
O4 O 0.57822(13) 0.5313(3) 0.59456(5) 0.0418 Uani
O5 O 0.87501(13) 0.1830(3) 0.98703(5) 0.0423 Uani
O6 O 0.62617(16) 0.7725(3) 0.60239(6) 0.0539 Uani
C1 C 0.72626(16) 0.2881(3) 0.96352(7) 0.0272 Uani
C2 C 0.79134(16) 0.2839(3) 0.93921(7) 0.0259 Uani
C3 C 0.78100(16) 0.3264(4) 0.90157(7) 0.0281 Uani
C4 C 0.70611(16) 0.3707(3) 0.88782(7) 0.0265 Uani
C5 C 0.64159(15) 0.3732(3) 0.91243(7) 0.0258 Uani
C6 C 0.65145(15) 0.3345(3) 0.95036(7) 0.0243 Uani
C7 C 0.69555(16) 0.4145(3) 0.84745(7) 0.0253 Uani
C8 C 0.75412(17) 0.4971(4) 0.82788(7) 0.0319 Uani
C9 C 0.74445(18) 0.5351(4) 0.79003(8) 0.0344 Uani
C10 C 0.67584(17) 0.4890(3) 0.77046(7) 0.0278 Uani
C11 C 0.61651(17) 0.4083(4) 0.79039(8) 0.0320 Uani
C12 C 0.62594(16) 0.3716(4) 0.82815(8) 0.0307 Uani
C13 C 0.66476(17) 0.5259(4) 0.72989(7) 0.0297 Uani
C14 C 0.6899(2) 0.6677(4) 0.71413(8) 0.0405 Uani
C15 C 0.6761(2) 0.7013(4) 0.67634(8) 0.0412 Uani
C16 C 0.63667(16) 0.5927(4) 0.65344(7) 0.0304 Uani
C17 C 0.61323(19) 0.4492(4) 0.66852(8) 0.0349 Uani
C18 C 0.62724(18) 0.4164(4) 0.70638(8) 0.0340 Uani
C19 C 0.87049(16) 0.2300(3) 0.95431(7) 0.0282 Uani
C20 C 0.58320(15) 0.3506(3) 0.97718(7) 0.0234 Uani
C21 C 0.61372(17) 0.6393(4) 0.61383(8) 0.0347 Uani
H1 H 0.7330 0.2630 0.9889 0.1220 Uiso
H2 H 0.8258 0.3119 0.8856 0.1220 Uiso
H3 H 0.5911 0.4007 0.9048 0.1220 Uiso
H4 H 0.8042 0.5382 0.8404 0.1220 Uiso
H5 H 0.7880 0.5834 0.7765 0.1220 Uiso
H6 H 0.5684 0.3756 0.7789 0.1220 Uiso
H7 H 0.5845 0.3233 0.8430 0.1220 Uiso
H8 H 0.7150 0.7482 0.7288 0.1220 Uiso
H9 H 0.6903 0.8017 0.6668 0.1220 Uiso
H10 H 0.5905 0.3750 0.6548 0.1220 Uiso
H11 H 0.6119 0.3199 0.7169 0.1220 Uiso
Zn1C Zn 0.521971(16) 0.61268(4) 0.550215(8) 0.0226 Uani
Zn1D Zn 0.521971(16) 0.38732(4) 1.050215(8) 0.0226 Uani
Zn1F Zn 1.021971(16) 0.11268(4) 0.949785(8) 0.0226 Uani
O2D O 0.40494(11) 0.6867(2) 0.98882(5) 0.0309 Uani
O3F O 0.57012(11) 0.7314(3) 0.93130(6) 0.0351 Uani
O4C O 0.42178(13) 0.5313(3) 0.90544(5) 0.0418 Uani
O7 O 1.02081(18) 0.6254(3) 0.87297(8) 0.0692 Uani
N1 N 0.9836(2) 0.4301(4) 0.83351(9) 0.0560 Uani
C22 C 0.9519(2) 0.2724(5) 0.82843(13) 0.0697 Uani
H12 H 0.9454 0.2228 0.8526 0.1040 Uiso
H13 H 0.9882 0.2114 0.8133 0.1040 Uiso
H14 H 0.9009 0.2786 0.8160 0.1040 Uiso
C23 C 1.0090(4) 0.5141(7) 0.80029(13) 0.1137 Uani
H15 H 0.9727 0.4920 0.7800 0.1700 Uiso
H16 H 1.0619 0.4808 0.7934 0.1700 Uiso
H17 H 1.0091 0.6257 0.8053 0.1700 Uiso
C24 C 0.9936(2) 0.4926(5) 0.86709(11) 0.0510 Uani
H18 H 0.9790 0.4322 0.8879 0.0610 Uiso
N2 N 0.38969(18) 0.1872(4) 0.93978(8) 0.0503 Uani
H19 H 0.3960 0.2676 0.9561 0.0600 Uiso
H20 H 0.4251 0.2014 0.9210 0.0600 Uiso
C25 C 0.3094(2) 0.1966(7) 0.92401(13) 0.0853 Uani
H21 H 0.3003 0.1073 0.9079 0.1280 Uiso
H22 H 0.3042 0.2924 0.9097 0.1280 Uiso
H23 H 0.2709 0.1963 0.9441 0.1280 Uiso
C26 C 0.4093(4) 0.0398(5) 0.95914(12) 0.1013 Uani
H24 H 0.3647 0.0074 0.9743 0.1520 Uiso
H25 H 0.4552 0.0560 0.9749 0.1520 Uiso
H26 H 0.4209 -0.0407 0.9409 0.1520 Uiso
loop_
_atom_site_aniso_label
_atom_site_aniso_U_11
_atom_site_aniso_U_22
_atom_site_aniso_U_33
_atom_site_aniso_U_23
_atom_site_aniso_U_13
_atom_site_aniso_U_12
Zn1 0.02072(14) 0.03190(16) 0.01506(14) 0.00073(12) -0.00003(12) -0.00143(13)
O1 0.0221(9) 0.0313(10) 0.0246(9) 0.0018(8) 0.0007(7) 0.0021(8)
O2 0.0319(10) 0.0445(12) 0.0162(9) 0.0056(8) 0.0039(8) 0.0087(9)
O3 0.0223(10) 0.0473(13) 0.0358(11) 0.0103(10) 0.0008(8) 0.0074(9)
O4 0.0453(13) 0.0595(15) 0.0205(10) 0.0049(10) -0.0135(9) 0.0017(11)
O5 0.0400(12) 0.0635(15) 0.0234(10) 0.0004(10) -0.0080(9) 0.0215(11)
O6 0.0787(18) 0.0516(15) 0.0314(12) 0.0169(11) -0.0086(12) 0.0007(13)
C1 0.0285(14) 0.0364(15) 0.0168(12) 0.0029(11) -0.0005(10) 0.0072(12)
C2 0.0237(13) 0.0351(15) 0.0189(12) 0.0014(11) -0.0007(10) 0.0055(11)
C3 0.0233(13) 0.0393(16) 0.0218(13) 0.0028(12) 0.0000(10) 0.0063(12)
C4 0.0280(13) 0.0358(16) 0.0158(12) 0.0024(11) -0.0001(10) 0.0055(12)
C5 0.0245(13) 0.0345(15) 0.0185(12) 0.0022(11) -0.0014(10) 0.0060(12)
C6 0.0241(12) 0.0328(14) 0.0161(11) 0.0001(11) 0.0008(10) 0.0056(11)
C7 0.0279(13) 0.0325(15) 0.0156(12) 0.0035(11) -0.0001(10) 0.0057(11)
C8 0.0306(14) 0.0442(17) 0.0209(13) 0.0044(12) -0.0037(11) -0.0036(13)
C9 0.0327(15) 0.0481(18) 0.0224(14) 0.0056(13) -0.0030(12) -0.0081(14)
C10 0.0341(15) 0.0337(15) 0.0156(12) 0.0037(11) -0.0020(11) 0.0001(12)
C11 0.0304(14) 0.0438(18) 0.0218(13) 0.0058(12) -0.0044(11) -0.0052(13)
C12 0.0280(13) 0.0422(17) 0.0218(13) 0.0044(12) -0.0008(11) -0.0006(13)
C13 0.0312(14) 0.0416(17) 0.0162(13) 0.0048(11) -0.0040(11) -0.0016(13)
C14 0.053(2) 0.0438(18) 0.0248(15) 0.0045(13) -0.0096(14) -0.0171(16)
C15 0.052(2) 0.0449(19) 0.0267(15) 0.0085(14) -0.0097(14) -0.0140(16)
C16 0.0310(14) 0.0408(17) 0.0194(13) 0.0047(12) -0.0038(11) 0.0006(12)
C17 0.0426(17) 0.0403(17) 0.0217(14) -0.0013(12) -0.0045(12) -0.0043(14)
C18 0.0443(17) 0.0361(17) 0.0215(14) 0.0042(12) -0.0070(12) -0.0051(14)
C19 0.0274(14) 0.0336(15) 0.0237(14) -0.0040(11) -0.0033(11) 0.0055(12)
C20 0.0257(13) 0.0264(14) 0.0180(12) -0.0003(10) 0.0018(10) 0.0017(11)
C21 0.0324(15) 0.053(2) 0.0187(13) 0.0024(13) -0.0018(11) 0.0115(14)
Zn1C 0.02072 0.0319 0.01506 -0.00073 -3e-05 0.00143
Zn1D 0.02072 0.0319 0.01506 0.00073 -3e-05 -0.00143
Zn1F 0.02072 0.0319 0.01506 0.00073 3e-05 0.00143
O2D 0.0319 0.0445 0.0162 0.0056 0.0039 0.0087
O3F 0.0223 0.0473 0.0358 0.0103 -0.0008 -0.0074
O4C 0.0453 0.0595 0.0205 -0.0049 -0.0135 -0.0017
O7 0.085(2) 0.0486(16) 0.074(2) 0.0058(14) -0.0112(16) -0.0107(15)
N1 0.067(2) 0.0504(18) 0.0507(18) 0.0074(15) -0.0074(16) -0.0020(16)
C22 0.054(2) 0.062(3) 0.093(3) -0.017(2) -0.012(2) 0.005(2)
C23 0.194(7) 0.092(4) 0.055(3) 0.014(3) 0.027(4) 0.001(4)
C24 0.053(2) 0.049(2) 0.051(2) 0.0124(17) -0.0075(17) -0.0019(17)
N2 0.064(2) 0.0475(18) 0.0393(16) -0.0012(13) -0.0105(14) -0.0111(15)
C25 0.055(3) 0.134(5) 0.067(3) -0.007(3) -0.006(2) -0.022(3)
C26 0.204(7) 0.045(3) 0.055(3) -0.006(2) -0.008(3) 0.021(3)
loop_
_geom_bond_atom_site_label_1
_geom_bond_atom_site_label_2
_geom_bond_site_symmetry_1
_geom_bond_site_symmetry_2
Zn1 O1 1_555 1_555
O1 C20 1_555 1_555
O2 C20 1_555 1_555
O3 C19 1_555 1_555
O4 C21 1_555 1_555
O5 C19 1_555 1_555
O6 C21 1_555 1_555
C1 C2 1_555 1_555
C2 C3 1_555 1_555
C3 C4 1_555 1_555
C4 C5 1_555 1_555
C5 C6 1_555 1_555
C6 C1 1_555 1_555
C7 C4 1_555 1_555
C8 C7 1_555 1_555
C9 C8 1_555 1_555
C10 C9 1_555 1_555
C11 C10 1_555 1_555
C12 C7 1_555 1_555
C13 C10 1_555 1_555
C14 C13 1_555 1_555
C15 C14 1_555 1_555
C16 C15 1_555 1_555
C17 C16 1_555 1_555
C18 C13 1_555 1_555
C19 C2 1_555 1_555
C20 C6 1_555 1_555
C21 C16 1_555 1_555
H1 C1 1_555 1_555
H2 C3 1_555 1_555
H3 C5 1_555 1_555
H4 C8 1_555 1_555
H5 C9 1_555 1_555
H6 C11 1_555 1_555
H7 C12 1_555 1_555
H8 C14 1_555 1_555
H9 C15 1_555 1_555
H10 C17 1_555 1_555
H11 C18 1_555 1_555
O7 C24 1_555 1_555
N1 C22 1_555 1_555
C22 H12 1_555 1_555
H13 C22 1_555 1_555
H14 C22 1_555 1_555
C23 N1 1_555 1_555
H15 C23 1_555 1_555
H16 C23 1_555 1_555
H17 C23 1_555 1_555
C24 N1 1_555 1_555
H18 C24 1_555 1_555
N2 H19 1_555 1_555
H20 N2 1_555 1_555
C25 N2 1_555 1_555
H21 C25 1_555 1_555
H22 C25 1_555 1_555
H23 C25 1_555 1_555
C26 N2 1_555 1_555
H24 C26 1_555 1_555
H25 C26 1_555 1_555
H26 C26 1_555 1_555
Zn1C O4 1_555 1_555
Zn1D O2 1_555 1_555
Zn1F O3 1_555 1_555
O2D Zn1 1_555 1_555
O3F Zn1 1_555 1_555
O4C Zn1 1_555 1_555
C11 C12 1_555 1_555
C17 C18 1_555 1_555

#END
