
#######################################################################
#
#                 Cambridge Crystallographic Data Centre
#                                CCDC 
#
#######################################################################
#
# If this CIF has been generated from an entry in the Cambridge 
# Structural Database, then it will include bibliographic, chemical, 
# crystal, experimental, refinement or atomic coordinate data resulting 
# from the CCDC's data processing and validation procedures.
#
#######################################################################

data_AZIMIH
_chemical_formula_moiety         '(C52 H32 N2 O37 Zn6 2-)n'
_symmetry_cell_setting           monoclinic
_symmetry_space_group_name_H-M   'C 2/c'
_symmetry_Int_Tables_number      15
_space_group_name_Hall           '-C 2yc'
loop_
_symmetry_equiv_pos_site_id
_symmetry_equiv_pos_as_xyz
1 x,y,z
2 -x,y,1/2-z
3 1/2+x,1/2+y,z
4 1/2-x,1/2+y,1/2-z
5 -x,-y,-z
6 x,-y,1/2+z
7 1/2-x,1/2-y,-z
8 1/2+x,1/2-y,1/2+z
_cell_length_a                   19.587(4)
_cell_length_b                   19.160(4)
_cell_length_c                   17.000(3)
_cell_angle_alpha                90
_cell_angle_beta                 93.29(3)
_cell_angle_gamma                90
_cell_volume                     6369.36
loop_
_atom_site_label
_atom_site_type_symbol
_atom_site_fract_x
_atom_site_fract_y
_atom_site_fract_z
Zn1 Zn 0.0000 0.99559(7) 0.2500
Zn2 Zn 0.26044(5) 0.74075(5) 0.25403(5)
Zn3 Zn 0.09372(5) 0.65092(5) 0.16488(6)
Zn4 Zn 0.0000 0.46607(7) 0.2500
O1 O 0.0646(3) 0.9597(3) 0.1779(4)
O2 O 0.0579(4) 0.8457(3) 0.1957(4)
O3 O 0.2073(3) 0.8082(3) 0.1874(3)
O4 O 0.1635(3) 0.7176(3) 0.1215(4)
O5 O 0.1771(3) 0.7892(3) -0.1745(4)
O6 O 0.2073(3) 0.9007(4) -0.1778(4)
O7 O 0.0515(3) 0.9337(3) -0.1832(3)
O8 O 0.0824(5) 1.0268(4) -0.1151(5)
O9 O 0.2113(3) 0.6732(3) 0.3159(4)
O10 O 0.1006(3) 0.6585(4) 0.2800(4)
O11 O 0.0664(3) 0.5162(3) 0.3222(4)
O12 O -0.0256(3) 0.5726(3) 0.3547(4)
O13 O 0.1353(4) 0.5569(4) 0.6846(4)
O14 O 0.0294(4) 0.5962(4) 0.6674(4)
O15 O 0.2676(4) 0.6787(5) 0.6107(4)
O16 O 0.1769(3) 0.7116(4) 0.6704(4)
O17 O 0.0223(3) 0.7238(4) 0.1389(4)
H1 H -0.0143 0.7148 0.1630
H2 H 0.0341 0.7656 0.1494
O18 O 0.1616(4) 0.5757(4) 0.1443(5)
H3 H 0.1739 0.5455 0.1789
H4 H 0.1236 0.5670 0.1196
C1 C 0.1030(4) 0.8861(4) 0.0793(5)
C2 C 0.1459(4) 0.8298(5) 0.0671(5)
C3 C 0.1681(4) 0.8180(4) -0.0082(5)
H5 H 0.1968 0.7804 -0.0167
C4 C 0.1484(4) 0.8611(5) -0.0702(5)
C5 C 0.1054(5) 0.9176(5) -0.0580(5)
C6 C 0.0834(5) 0.9295(5) 0.0168(5)
H6 H 0.0549 0.9673 0.0253
C7 C 0.0735(4) 0.8963(5) 0.1579(5)
C8 C 0.1731(4) 0.7825(5) 0.1310(5)
C9 C 0.1801(4) 0.8497(5) -0.1475(5)
C10 C 0.0785(5) 0.9637(5) -0.1242(5)
C11 C 0.1358(4) 0.6389(4) 0.4111(5)
C12 C 0.0800(4) 0.5974(4) 0.4251(5)
C13 C 0.0642(4) 0.5849(4) 0.5022(5)
H7 H 0.0258 0.5584 0.5118
C14 C 0.1040(4) 0.6111(4) 0.5651(5)
C15 C 0.1607(4) 0.6509(5) 0.5507(5)
C16 C 0.1749(4) 0.6657(4) 0.4733(5)
H8 H 0.2118 0.6944 0.4635
C17 C 0.1513(4) 0.6581(4) 0.3291(4)
C18 C 0.0373(4) 0.5614(4) 0.3619(5)
C19 C 0.0888(4) 0.5874(4) 0.6466(4)
C20 C 0.2062(5) 0.6815(5) 0.6163(5)
Zn2A Zn -0.26044(5) 0.74075(5) 0.24597(5)
Zn3A Zn -0.09372(5) 0.65092(5) 0.33512(6)
O1A O -0.0646(3) 0.9597(3) 0.3221(4)
O2A O -0.0579(4) 0.8457(3) 0.3043(4)
O3A O -0.2073(3) 0.8082(3) 0.3126(3)
O4A O -0.1635(3) 0.7176(3) 0.3785(4)
O5A O -0.1771(3) 0.7892(3) 0.6745(4)
O6A O -0.2073(3) 0.9007(4) 0.6778(4)
O7A O -0.0515(3) 0.9337(3) 0.6832(3)
O8A O -0.0824(5) 1.0268(4) 0.6151(5)
O9A O -0.2113(3) 0.6732(3) 0.1841(4)
O10A O -0.1006(3) 0.6585(4) 0.2200(4)
O11A O -0.0664(3) 0.5162(3) 0.1778(4)
O12A O 0.0256(3) 0.5726(3) 0.1453(4)
O13A O -0.1353(4) 0.5569(4) -0.1846(4)
O14A O -0.0294(4) 0.5962(4) -0.1674(4)
O15A O -0.2676(4) 0.6787(5) -0.1107(4)
O16A O -0.1769(3) 0.7116(4) -0.1704(4)
O17A O -0.0223(3) 0.7238(4) 0.3611(4)
H1A H 0.0143 0.7148 0.3370
H2A H -0.0341 0.7656 0.3506
O18A O -0.1616(4) 0.5757(4) 0.3557(5)
H3A H -0.1739 0.5455 0.3211
H4A H -0.1236 0.5670 0.3804
C1A C -0.1030(4) 0.8861(4) 0.4207(5)
C2A C -0.1459(4) 0.8298(5) 0.4329(5)
C3A C -0.1681(4) 0.8180(4) 0.5082(5)
H5A H -0.1968 0.7804 0.5167
C4A C -0.1484(4) 0.8611(5) 0.5702(5)
C5A C -0.1054(5) 0.9176(5) 0.5580(5)
C6A C -0.0834(5) 0.9295(5) 0.4832(5)
H6A H -0.0549 0.9673 0.4747
C7A C -0.0735(4) 0.8963(5) 0.3421(5)
C8A C -0.1731(4) 0.7825(5) 0.3690(5)
C9A C -0.1801(4) 0.8497(5) 0.6475(5)
C10A C -0.0785(5) 0.9637(5) 0.6242(5)
C11A C -0.1358(4) 0.6389(4) 0.0889(5)
C12A C -0.0800(4) 0.5974(4) 0.0749(5)
C13A C -0.0642(4) 0.5849(4) -0.0022(5)
H7A H -0.0258 0.5584 -0.0118
C14A C -0.1040(4) 0.6111(4) -0.0651(5)
C15A C -0.1607(4) 0.6509(5) -0.0507(5)
C16A C -0.1749(4) 0.6657(4) 0.0267(5)
H8A H -0.2118 0.6944 0.0365
C17A C -0.1513(4) 0.6581(4) 0.1709(4)
C18A C -0.0373(4) 0.5614(4) 0.1381(5)
C19A C -0.0888(4) 0.5874(4) -0.1466(4)
C20A C -0.2062(5) 0.6815(5) -0.1163(5)
Zn1D Zn -0.0000 1.00441(7) -0.2500
Zn1D_2 Zn 0.0000 1.00441(7) 0.7500
Zn2F Zn 0.23956(5) 0.75925(5) -0.25403(5)
Zn2F_2 Zn 0.23956(5) 0.75925(5) 0.74597(5)
Zn2G Zn -0.23956(5) 0.75925(5) -0.24597(5)
Zn2G_2 Zn -0.23956(5) 0.75925(5) 0.75403(5)
Zn4D Zn 0.0000 0.53393(7) -0.2500
Zn4D_2 Zn 0.0000 0.53393(7) 0.7500
O5F O 0.3229(3) 0.7108(3) 0.1745(4)
O5G O -0.3229(3) 0.7108(3) 0.3255(4)
O7D O -0.0515(3) 1.0663(3) 0.1832(3)
O7E O 0.0515(3) 1.0663(3) 0.3168(3)
O14D O -0.0294(4) 0.4038(4) 0.3326(4)
O14E O 0.0294(4) 0.4038(4) 0.1674(4)
O16F O 0.3231(3) 0.7884(4) 0.3296(4)
O16G O -0.3231(3) 0.7884(4) 0.1704(4)
O19 O 0.4038(4) 0.3024(4) 0.1514(5)
H9 H 0.4325 0.3102 0.1898
H10 H 0.3804 0.3378 0.1362
N1 N 0.8023(5) 0.5624(6) 0.5930(7)
N2 N 0.5493(5) 0.3080(5) 0.5899(6)
C21 C 0.8538(8) 0.6184(8) 0.5955(11)
H11 H 0.8444 0.6510 0.6364
H12 H 0.8522 0.6422 0.5457
H13 H 0.8985 0.5987 0.6059
C22 C 0.7751(7) 0.5405(7) 0.6609(8)
H14 H 0.7903 0.5609 0.7084
C23 C 0.7280(6) 0.4913(7) 0.6615(7)
H15 H 0.7107 0.4777 0.7089
C24 C 0.7040(6) 0.4597(6) 0.5918(6)
C25 C 0.7330(6) 0.4830(6) 0.5234(7)
H16 H 0.7197 0.4628 0.4752
C26 C 0.7795(6) 0.5339(7) 0.5262(8)
H17 H 0.7964 0.5497 0.4794
C27 C 0.6504(6) 0.4061(6) 0.5916(6)
C28 C 0.6196(6) 0.3872(7) 0.6585(6)
H18 H 0.6329 0.4085 0.7061
C29 C 0.5709(6) 0.3390(7) 0.6565(7)
H19 H 0.5514 0.3266 0.7031
C30 C 0.4958(8) 0.2550(7) 0.5880(11)
H20 H 0.5105 0.2164 0.6207
H21 H 0.4869 0.2392 0.5348
H22 H 0.4549 0.2746 0.6072
C31 C 0.5777(7) 0.3259(7) 0.5234(7)
H23 H 0.5629 0.3043 0.4764
C32 C 0.6278(7) 0.3751(7) 0.5226(7)
H24 H 0.6465 0.3875 0.4755
loop_
_geom_bond_atom_site_label_1
_geom_bond_atom_site_label_2
_geom_bond_site_symmetry_1
_geom_bond_site_symmetry_2
Zn1 O1 1_555 1_555
Zn2 O3 1_555 1_555
Zn3 O4 1_555 1_555
Zn4 O11 1_555 1_555
O1 C7 1_555 1_555
O2 C7 1_555 1_555
O3 C8 1_555 1_555
O4 C8 1_555 1_555
O5 C9 1_555 1_555
O6 C9 1_555 1_555
O7 C10 1_555 1_555
O8 C10 1_555 1_555
O9 Zn2 1_555 1_555
O10 Zn3 1_555 1_555
O11 C18 1_555 1_555
O12 C18 1_555 1_555
O13 C19 1_555 1_555
O14 C19 1_555 1_555
O15 C20 1_555 1_555
O16 C20 1_555 1_555
O17 Zn3 1_555 1_555
H1 O17 1_555 1_555
H2 O17 1_555 1_555
O18 Zn3 1_555 1_555
H3 O18 1_555 1_555
H4 O18 1_555 1_555
C1 C2 1_555 1_555
C2 C3 1_555 1_555
C3 H5 1_555 1_555
C4 C3 1_555 1_555
C5 C4 1_555 1_555
C6 C1 1_555 1_555
H6 C6 1_555 1_555
C7 C1 1_555 1_555
C8 C2 1_555 1_555
C9 C4 1_555 1_555
C10 C5 1_555 1_555
C11 C12 1_555 1_555
C12 C13 1_555 1_555
C13 H7 1_555 1_555
C14 C13 1_555 1_555
C15 C14 1_555 1_555
C16 C11 1_555 1_555
H8 C16 1_555 1_555
C17 O9 1_555 1_555
C18 C12 1_555 1_555
C19 C14 1_555 1_555
C20 C15 1_555 1_555
O19 H9 1_555 1_555
H10 O19 1_555 1_555
N1 C21 1_555 1_555
N2 C29 1_555 1_555
C21 H11 1_555 1_555
H12 C21 1_555 1_555
H13 C21 1_555 1_555
C22 N1 1_555 1_555
H14 C22 1_555 1_555
C23 C22 1_555 1_555
H15 C23 1_555 1_555
C24 C23 1_555 1_555
C25 C24 1_555 1_555
H16 C25 1_555 1_555
C26 N1 1_555 1_555
H17 C26 1_555 1_555
C27 C24 1_555 1_555
C28 C27 1_555 1_555
H18 C28 1_555 1_555
C29 C28 1_555 1_555
H19 C29 1_555 1_555
C30 N2 1_555 1_555
H20 C30 1_555 1_555
H21 C30 1_555 1_555
H22 C30 1_555 1_555
C31 N2 1_555 1_555
H23 C31 1_555 1_555
C32 C27 1_555 1_555
H24 C32 1_555 1_555
Zn2A O3A 1_555 1_555
Zn3A O12 1_555 1_555
O1A Zn1 1_555 1_555
O2A C7A 1_555 1_555
O3A C8A 1_555 1_555
O4A Zn3A 1_555 1_555
O5A C9A 1_555 1_555
O6A C9A 1_555 1_555
O7A C10A 1_555 1_555
O8A C10A 1_555 1_555
O9A Zn2A 1_555 1_555
O10A Zn3A 1_555 1_555
O11A Zn4 1_555 1_555
O12A Zn3 1_555 1_555
O13A C19A 1_555 1_555
O14A C19A 1_555 1_555
O15A C20A 1_555 1_555
O16A C20A 1_555 1_555
O17A Zn3A 1_555 1_555
H1A O17A 1_555 1_555
H2A O17A 1_555 1_555
O18A Zn3A 1_555 1_555
H3A O18A 1_555 1_555
H4A O18A 1_555 1_555
C1A C2A 1_555 1_555
C2A C3A 1_555 1_555
C3A H5A 1_555 1_555
C4A C3A 1_555 1_555
C5A C4A 1_555 1_555
C6A C1A 1_555 1_555
H6A C6A 1_555 1_555
C7A O1A 1_555 1_555
C8A O4A 1_555 1_555
C9A C4A 1_555 1_555
C10A C5A 1_555 1_555
C11A C12A 1_555 1_555
C12A C13A 1_555 1_555
C13A H7A 1_555 1_555
C14A C13A 1_555 1_555
C15A C14A 1_555 1_555
C16A C11A 1_555 1_555
H8A C16A 1_555 1_555
C17A O9A 1_555 1_555
C18A O11A 1_555 1_555
C19A C14A 1_555 1_555
C20A C15A 1_555 1_555
Zn1D O7 1_555 1_555
Zn1D_2 O7A 1_555 1_555
Zn2F O5 1_555 1_555
Zn2F_2 O16 1_555 1_555
Zn2G O16A 1_555 1_555
Zn2G_2 O5A 1_555 1_555
Zn4D O14A 1_555 1_555
Zn4D_2 O14 1_555 1_555
O5F Zn2 1_555 1_555
O5G Zn2A 1_555 1_555
O7D Zn1 1_555 1_555
O7E Zn1 1_555 1_555
O14D Zn4 1_555 1_555
O14E Zn4 1_555 1_555
O16F Zn2 1_555 1_555
O16G Zn2A 1_555 1_555
O10 C17 1_555 1_555
C5 C6 1_555 1_555
C11 C17 1_555 1_555
C15 C16 1_555 1_555
C25 C26 1_555 1_555
C31 C32 1_555 1_555
O10A C17A 1_555 1_555
O12A C18A 1_555 1_555
C1A C7A 1_555 1_555
C2A C8A 1_555 1_555
C5A C6A 1_555 1_555
C11A C17A 1_555 1_555
C12A C18A 1_555 1_555
C15A C16A 1_555 1_555

#END
