
#######################################################################
#
#                 Cambridge Crystallographic Data Centre
#                                CCDC 
#
#######################################################################
#
# If this CIF has been generated from an entry in the Cambridge 
# Structural Database, then it will include bibliographic, chemical, 
# crystal, experimental, refinement or atomic coordinate data resulting 
# from the CCDC's data processing and validation procedures.
#
#######################################################################

data_SISFEH
_chemical_formula_moiety         '(C14 H18 N2 Ni1 O14 Sr1)n'
_symmetry_cell_setting           monoclinic
_symmetry_space_group_name_H-M   'C 2/c'
_symmetry_Int_Tables_number      15
_space_group_name_Hall           '-C 2yc'
loop_
_symmetry_equiv_pos_site_id
_symmetry_equiv_pos_as_xyz
1 x,y,z
2 -x,y,1/2-z
3 1/2+x,1/2+y,z
4 1/2-x,1/2+y,1/2-z
5 -x,-y,-z
6 x,-y,1/2+z
7 1/2-x,1/2-y,-z
8 1/2+x,1/2-y,1/2+z
_cell_length_a                   18.324(3)
_cell_length_b                   13.794(3)
_cell_length_c                   8.7635(17)
_cell_angle_alpha                90
_cell_angle_beta                 107.405(3)
_cell_angle_gamma                90
_cell_volume                     2113.65
loop_
_atom_site_label
_atom_site_type_symbol
_atom_site_fract_x
_atom_site_fract_y
_atom_site_fract_z
Sr1 Sr 0.5000 -0.03835(2) 0.2500
Ni1 Ni 0.2500 0.2500 0.0000
O1 O 0.32981(10) 0.14249(14) 0.0693(2)
O2 O 0.36803(12) 0.02455(15) 0.2484(3)
O3 O 0.08503(13) 0.20720(19) 0.5736(3)
O4 O 0.07288(14) 0.32253(18) 0.3961(3)
O5 O 0.46854(11) -0.09877(14) 0.5328(2)
H1 H 0.4232 -0.1169 0.5243
H2 H 0.4961 -0.1488 0.5361
O6 O 0.33059(12) 0.35134(16) 0.1274(3)
H3 H 0.3564 0.3354 0.2218
H4 H 0.3655 0.3609 0.0833
N1 N 0.22856(12) 0.20621(15) 0.2033(3)
C1 C 0.26589(14) 0.12508(18) 0.2649(3)
C2 C 0.25156(16) 0.0762(2) 0.3897(3)
H5 H 0.2778 0.0195 0.4297
C3 C 0.19678(17) 0.1135(2) 0.4547(4)
H6 H 0.1854 0.0813 0.5380
C4 C 0.15940(15) 0.19884(19) 0.3945(3)
C5 C 0.17722(16) 0.24293(18) 0.2680(3)
H7 H 0.1524 0.3003 0.2265
C6 C 0.32661(14) 0.09358(18) 0.1903(3)
C7 C 0.10108(16) 0.2459(2) 0.4599(3)
O1A O 0.67019(10) 0.14249(14) 0.4307(2)
O2A O 0.63197(12) 0.02455(15) 0.2516(3)
O3A O 0.91497(13) 0.20720(19) -0.0736(3)
O4A O 0.92712(14) 0.32253(18) 0.1039(3)
O5A O 0.53146(11) -0.09877(14) -0.0328(2)
H1A H 0.5768 -0.1169 -0.0243
H2A H 0.5039 -0.1488 -0.0361
N1A N 0.77144(12) 0.20621(15) 0.2967(3)
C1A C 0.73411(14) 0.12508(18) 0.2351(3)
C2A C 0.74844(16) 0.0762(2) 0.1103(3)
H5A H 0.7222 0.0195 0.0703
C3A C 0.80322(17) 0.1135(2) 0.0453(4)
H6A H 0.8146 0.0813 -0.0380
C4A C 0.84060(15) 0.19884(19) 0.1055(3)
C5A C 0.82278(16) 0.24293(18) 0.2320(3)
H7A H 0.8476 0.3003 0.2735
C6A C 0.67339(14) 0.09358(18) 0.3097(3)
C7A C 0.89892(16) 0.2459(2) 0.0401(3)
O6F O 0.16941(12) 0.14866(16) -0.1274(3)
H3F H 0.1436 0.1646 -0.2218
H4F H 0.1345 0.1391 -0.0833
Sr1B Sr 0.0000 0.46165(2) 0.2500
Sr1B_2 Sr 1.0000 0.46165(2) 0.2500
Sr1D Sr 0.5000 0.03835(2) -0.2500
Sr1D_2 Sr 0.5000 0.03835(2) 0.7500
Ni1A Ni 0.7500 0.2500 0.5000
O1F O 0.17019(10) 0.35751(14) -0.0693(2)
O4B O 0.57288(14) -0.17747(18) 0.3961(3)
O4C O 0.42712(14) -0.17747(18) 0.1039(3)
O5D O 0.53146(11) 0.09877(14) 0.4672(2)
O5E O 0.46854(11) 0.09877(14) 0.0328(2)
N1F N 0.27144(12) 0.29379(15) -0.2033(3)
O7 O 0.0479(2) 0.1047(3) 0.9855(5)
H8 H 0.0061 0.1359 0.9654
H9 H 0.0627 0.0930 1.0853
O8 O 0.0000 -0.0308(4) 0.7500
H10 H 0.0263 0.0116 0.8178
H10A H -0.0263 0.0116 0.6822
loop_
_geom_bond_atom_site_label_1
_geom_bond_atom_site_label_2
_geom_bond_site_symmetry_1
_geom_bond_site_symmetry_2
Sr1 O2 1_555 1_555
Ni1 O1 1_555 1_555
O1 C6 1_555 1_555
O2 C6 1_555 1_555
O3 C7 1_555 1_555
O4 C7 1_555 1_555
O5 Sr1 1_555 1_555
H1 O5 1_555 1_555
H2 O5 1_555 1_555
O6 Ni1 1_555 1_555
H3 O6 1_555 1_555
H4 O6 1_555 1_555
N1 Ni1 1_555 1_555
C1 N1 1_555 1_555
C2 C1 1_555 1_555
H5 C2 1_555 1_555
C3 C2 1_555 1_555
H6 C3 1_555 1_555
C4 C3 1_555 1_555
C5 N1 1_555 1_555
H7 C5 1_555 1_555
C6 C1 1_555 1_555
C7 C4 1_555 1_555
O7 H8 1_555 1_555
H9 O7 1_555 1_555
O8 H10 1_555 1_555
O1A C6A 1_555 1_555
O2A Sr1 1_555 1_555
O3A C7A 1_555 1_555
O4A C7A 1_555 1_555
O5A Sr1 1_555 1_555
H1A O5A 1_555 1_555
H2A O5A 1_555 1_555
N1A C1A 1_555 1_555
C1A C2A 1_555 1_555
C2A H5A 1_555 1_555
C3A C2A 1_555 1_555
H6A C3A 1_555 1_555
C4A C3A 1_555 1_555
C5A N1A 1_555 1_555
H7A C5A 1_555 1_555
C6A O2A 1_555 1_555
C7A C4A 1_555 1_555
O6F Ni1 1_555 1_555
H3F O6F 1_555 1_555
H4F O6F 1_555 1_555
Sr1B O4 1_555 1_555
Sr1B_2 O4A 1_555 1_555
Sr1D O5A 1_555 1_555
Sr1D_2 O5 1_555 1_555
Ni1A O1A 1_555 1_555
O1F Ni1 1_555 1_555
O4B Sr1 1_555 1_555
O4C Sr1 1_555 1_555
O5D Sr1 1_555 1_555
O5E Sr1 1_555 1_555
N1F Ni1 1_555 1_555
H10A O8 1_555 1_555
C4 C5 1_555 1_555
N1A Ni1A 1_555 1_555
C1A C6A 1_555 1_555
C4A C5A 1_555 1_555
Sr1D O5E 1_555 1_555
Sr1D_2 O5D 1_555 1_555

#END
