
#######################################################################
#
#                 Cambridge Crystallographic Data Centre
#                                CCDC 
#
#######################################################################
#
# If this CIF has been generated from an entry in the Cambridge 
# Structural Database, then it will include bibliographic, chemical, 
# crystal, experimental, refinement or atomic coordinate data resulting 
# from the CCDC's data processing and validation procedures.
#
#######################################################################

data_NEYYUN
_chemical_formula_moiety         '(C11 H10 N5 Ni1 O8 S2)n'
_symmetry_cell_setting           tetragonal
_symmetry_space_group_name_H-M   'I -4 2 d'
_symmetry_Int_Tables_number      122
_space_group_name_Hall           'I -4 2bw'
loop_
_symmetry_equiv_pos_site_id
_symmetry_equiv_pos_as_xyz
1 x,y,z
2 -x,-y,z
3 y,-x,-z
4 -y,x,-z
5 1/2-x,y,3/4-z
6 1/2+x,-y,3/4-z
7 1/2-y,-x,3/4+z
8 1/2+y,x,3/4+z
9 1/2+x,1/2+y,1/2+z
10 1/2-x,1/2-y,1/2+z
11 1/2+y,1/2-x,1/2-z
12 1/2-y,1/2+x,1/2-z
13 -x,1/2+y,1/4-z
14 x,1/2-y,1/4-z
15 -y,1/2-x,1/4+z
16 y,1/2+x,1/4+z
_cell_length_a                   16.8944(2)
_cell_length_b                   16.8944(2)
_cell_length_c                   7.5454(3)
_cell_angle_alpha                90
_cell_angle_beta                 90
_cell_angle_gamma                90
_cell_volume                     2153.61
loop_
_atom_site_label
_atom_site_type_symbol
_atom_site_fract_x
_atom_site_fract_y
_atom_site_fract_z
N2 N 0.032(2) 0.2500 0.1250
O3 O 0.0234(19) 0.1181(13) 0.003(4)
C4 C 0.063(4) 0.183(3) 0.048(9)
C5 C -0.052(2) 0.2500 0.1250
O3M O 0.0234(19) 0.3819(13) 0.247(4)
C4M C 0.063(4) 0.317(3) 0.202(9)
Ni1 Ni 0.5000 0.5000 0.0000
S1 S 0.28287(14) 0.2500 0.1250
C1 C 0.3801(5) 0.2500 0.1250
O1 O 0.5363(2) 0.3808(2) 0.0165(9)
N1 N 0.4236(3) 0.3135(3) 0.0745(8)
H1 H 0.3981 0.3550 0.0411
C2 C 0.5067(4) 0.3174(3) 0.0722(9)
C3 C 0.5475(5) 0.2500 0.1250
H2 H 0.6026 0.2500 0.1250
O2 O 0.5000(5) 0.5000 -0.2664
H3 H 0.5118 0.5390 -0.3345
O1M O 0.5363(2) 0.1192(2) 0.2335(9)
N1M N 0.4236(3) 0.1865(3) 0.1755(8)
H1M H 0.3981 0.1450 0.2089
C2M C 0.5067(4) 0.1826(3) 0.1778(9)
H3A H 0.4882 0.4610 -0.3345
S1A S 0.71713(14) 0.7500 0.1250
C1A C 0.6199(5) 0.7500 0.1250
O1A O 0.4637(2) 0.6192(2) 0.0165(9)
N1A N 0.5764(3) 0.6865(3) 0.0745(8)
H1A H 0.6019 0.6450 0.0411
C2A C 0.4933(4) 0.6826(3) 0.0722(9)
C3A C 0.4525(5) 0.7500 0.1250
H2A H 0.3974 0.7500 0.1250
O1L O 0.4637(2) 0.8808(2) 0.2335(9)
N1L N 0.5764(3) 0.8135(3) 0.1755(8)
H1L H 0.6019 0.8550 0.2089
C2L C 0.4933(4) 0.8174(3) 0.1778(9)
O2B O 0.5000 0.5000(5) 0.2664
H3B H 0.5390 0.4882 0.3345
H3C H 0.4610 0.5118 0.3345
Ni1L Ni 0.5000 0.0000 0.2500
Ni1L_2 Ni 0.5000 1.0000 0.2500
O1B O 0.3808(2) 0.4637(2) -0.0165(9)
O1C O 0.6192(2) 0.5363(2) -0.0165(9)
loop_
_geom_bond_atom_site_label_1
_geom_bond_atom_site_label_2
_geom_bond_site_symmetry_1
_geom_bond_site_symmetry_2
Ni1 O1 1_555 1_555
S1 C1 1_555 1_555
C1 N1 1_555 1_555
O1 C2 1_555 1_555
N1 H1 1_555 1_555
C2 N1 1_555 1_555
C3 C2 1_555 1_555
H2 C3 1_555 1_555
O2 Ni1 1_555 1_555
H3 O2 1_555 1_555
N2 C4 1_555 1_555
O3 C4 1_555 1_555
C5 N2 1_555 1_555
O1M C2M 1_555 1_555
N1M C1 1_555 1_555
H1M N1M 1_555 1_555
C2M C3 1_555 1_555
H3A O2 1_555 1_555
S1A C1A 1_555 1_555
C1A N1A 1_555 1_555
O1A Ni1 1_555 1_555
N1A H1A 1_555 1_555
C2A O1A 1_555 1_555
C3A C2A 1_555 1_555
H2A C3A 1_555 1_555
O1L C2L 1_555 1_555
N1L C1A 1_555 1_555
H1L N1L 1_555 1_555
C2L C3A 1_555 1_555
O2B Ni1 1_555 1_555
H3B O2B 1_555 1_555
H3C O2B 1_555 1_555
Ni1L O1M 1_555 1_555
Ni1L_2 O1L 1_555 1_555
O1B Ni1 1_555 1_555
O1C Ni1 1_555 1_555
O3M C4M 1_555 1_555
C4M N2 1_555 1_555
N1M C2M 1_555 1_555
N1A C2A 1_555 1_555
N1L C2L 1_555 1_555

#END
