
#######################################################################
#
#                 Cambridge Crystallographic Data Centre
#                                CCDC 
#
#######################################################################
#
# If this CIF has been generated from an entry in the Cambridge 
# Structural Database, then it will include bibliographic, chemical, 
# crystal, experimental, refinement or atomic coordinate data resulting 
# from the CCDC's data processing and validation procedures.
#
#######################################################################

data_NEYZAU
_chemical_formula_moiety         '(C8 H10 Mg1 N4 O6 S2)n'
_symmetry_cell_setting           tetragonal
_symmetry_space_group_name_H-M   'I -4 2 d'
_symmetry_Int_Tables_number      122
_space_group_name_Hall           'I -4 2bw'
loop_
_symmetry_equiv_pos_site_id
_symmetry_equiv_pos_as_xyz
1 x,y,z
2 -x,-y,z
3 y,-x,-z
4 -y,x,-z
5 1/2-x,y,3/4-z
6 1/2+x,-y,3/4-z
7 1/2-y,-x,3/4+z
8 1/2+y,x,3/4+z
9 1/2+x,1/2+y,1/2+z
10 1/2-x,1/2-y,1/2+z
11 1/2+y,1/2-x,1/2-z
12 1/2-y,1/2+x,1/2-z
13 -x,1/2+y,1/4-z
14 x,1/2-y,1/4-z
15 -y,1/2-x,1/4+z
16 y,1/2+x,1/4+z
_cell_length_a                   16.9643(4)
_cell_length_b                   16.9643(4)
_cell_length_c                   7.6067(7)
_cell_angle_alpha                90
_cell_angle_beta                 90
_cell_angle_gamma                90
_cell_volume                     2189.11
loop_
_atom_site_label
_atom_site_type_symbol
_atom_site_fract_x
_atom_site_fract_y
_atom_site_fract_z
Mg1 Mg 0.5000 0.5000 0.0000
S1 S 0.28243(12) 0.2500 0.1250
C1 C 0.3784(4) 0.2500 0.1250
O1 O 0.5348(2) 0.3807(2) 0.0169(6)
N1 N 0.4230(2) 0.3135(2) 0.0777(6)
H1 H 0.3980 0.3556 0.0486
C2 C 0.5038(3) 0.3168(3) 0.0720(7)
C3 C 0.5458(4) 0.2500 0.1250
H2 H 0.6006 0.2500 0.1250
O2 O 0.5000 0.5000 -0.2687(8)
H3 H 0.5113 0.5390 -0.3341
O1M O 0.5348(2) 0.1193(2) 0.2331(6)
N1M N 0.4230(2) 0.1865(2) 0.1723(6)
H1M H 0.3980 0.1444 0.2014
C2M C 0.5038(3) 0.1832(3) 0.1780(7)
H3A H 0.4887 0.4610 -0.3341
S1A S 0.71757(12) 0.7500 0.1250
C1A C 0.6216(4) 0.7500 0.1250
O1A O 0.4652(2) 0.6193(2) 0.0169(6)
N1A N 0.5770(2) 0.6865(2) 0.0777(6)
H1A H 0.6020 0.6444 0.0486
C2A C 0.4962(3) 0.6832(3) 0.0720(7)
C3A C 0.4542(4) 0.7500 0.1250
H2A H 0.3994 0.7500 0.1250
O1L O 0.4652(2) 0.8807(2) 0.2331(6)
N1L N 0.5770(2) 0.8135(2) 0.1723(6)
H1L H 0.6020 0.8556 0.2014
C2L C 0.4962(3) 0.8168(3) 0.1780(7)
O2B O 0.5000 0.5000 0.2687(8)
H3B H 0.5390 0.4887 0.3341
H3C H 0.4610 0.5113 0.3341
Mg1L Mg 0.5000 0.0000 0.2500
Mg1L_2 Mg 0.5000 1.0000 0.2500
O1B O 0.3807(2) 0.4652(2) -0.0169(6)
O1C O 0.6193(2) 0.5348(2) -0.0169(6)
loop_
_geom_bond_atom_site_label_1
_geom_bond_atom_site_label_2
_geom_bond_site_symmetry_1
_geom_bond_site_symmetry_2
Mg1 O1 1_555 1_555
S1 C1 1_555 1_555
C1 N1 1_555 1_555
O1 C2 1_555 1_555
N1 H1 1_555 1_555
C2 N1 1_555 1_555
C3 C2 1_555 1_555
H2 C3 1_555 1_555
O2 Mg1 1_555 1_555
H3 O2 1_555 1_555
O1M C2M 1_555 1_555
N1M C1 1_555 1_555
H1M N1M 1_555 1_555
C2M C3 1_555 1_555
H3A O2 1_555 1_555
S1A C1A 1_555 1_555
C1A N1A 1_555 1_555
O1A Mg1 1_555 1_555
N1A H1A 1_555 1_555
C2A O1A 1_555 1_555
C3A C2A 1_555 1_555
H2A C3A 1_555 1_555
O1L C2L 1_555 1_555
N1L C1A 1_555 1_555
H1L N1L 1_555 1_555
C2L C3A 1_555 1_555
O2B Mg1 1_555 1_555
H3B O2B 1_555 1_555
H3C O2B 1_555 1_555
Mg1L O1M 1_555 1_555
Mg1L_2 O1L 1_555 1_555
O1B Mg1 1_555 1_555
O1C Mg1 1_555 1_555
N1M C2M 1_555 1_555
N1A C2A 1_555 1_555
N1L C2L 1_555 1_555

#END
