
#######################################################################
#
#                 Cambridge Crystallographic Data Centre
#                                CCDC 
#
#######################################################################
#
# If this CIF has been generated from an entry in the Cambridge 
# Structural Database, then it will include bibliographic, chemical, 
# crystal, experimental, refinement or atomic coordinate data resulting 
# from the CCDC's data processing and validation procedures.
#
#######################################################################

data_VASKOR
_chemical_formula_moiety         '(C11 H12 N1 O6 Sc1)n'
_symmetry_cell_setting           orthorhombic
_symmetry_space_group_name_H-M   'P n a 21'
_symmetry_Int_Tables_number      33
_space_group_name_Hall           'P 2c -2n'
loop_
_symmetry_equiv_pos_site_id
_symmetry_equiv_pos_as_xyz
1 x,y,z
2 -x,-y,1/2+z
3 1/2+x,1/2-y,z
4 1/2-x,1/2+y,1/2+z
_cell_length_a                   19.344(2)
_cell_length_b                   9.1802(14)
_cell_length_c                   7.3013(11)
_cell_angle_alpha                90
_cell_angle_beta                 90
_cell_angle_gamma                90
_cell_volume                     1296.58
loop_
_atom_site_label
_atom_site_type_symbol
_atom_site_fract_x
_atom_site_fract_y
_atom_site_fract_z
_atom_site_U_iso_or_equiv
_atom_site_thermal_displace_type
Sc1 Sc 0.50050(9) 0.4956(3) 0.3539(6) 0.0141 Uani
O1 O 0.4145(4) 0.6130(9) 0.4486(9) 0.0277 Uani
O2 O 0.4175(3) 0.6277(8) 0.7530(9) 0.0230 Uani
C1 C 0.3877(4) 0.6399(9) 0.5986(19) 0.0207 Uani
C2 C 0.3128(4) 0.6905(9) 0.6041(19) 0.0180 Uani
C3 C 0.2850(5) 0.7503(11) 0.7645(15) 0.0230 Uani
H1 H 0.3121 0.7610 0.8721 0.0280 Uiso
C4 C 0.2176(5) 0.7924(11) 0.7596(15) 0.0253 Uani
H2 H 0.1972 0.8303 0.8681 0.0300 Uiso
C5 C 0.1759(4) 0.7819(9) 0.5976(18) 0.0177 Uani
C6 C 0.2052(5) 0.7293(11) 0.4452(15) 0.0247 Uani
H3 H 0.1790 0.7247 0.3354 0.0300 Uiso
C7 C 0.2749(5) 0.6802(11) 0.4448(13) 0.0207 Uani
H4 H 0.2950 0.6410 0.3368 0.0250 Uiso
C8 C 0.1031(4) 0.8295(9) 0.5959(18) 0.0217 Uani
O3 O 0.0734(4) 0.8451(9) 0.7532(10) 0.0280 Uani
O4 O 0.0740(4) 0.8497(8) 0.4497(10) 0.0243 Uani
O5 O 0.5084(3) 0.3933(5) 0.6099(13) 0.0163 Uani
H5 H 0.469(4) 0.338(10) 0.654(15) 0.0600 Uiso
Sc1A Sc 0.49950(9) 0.5044(3) 0.8539(6) 0.0141 Uani
Sc1C Sc -0.00050(9) 0.9956(3) 0.8539(6) 0.0141 Uani
Sc1B Sc 0.00050(9) 1.0044(3) 0.3539(6) 0.0141 Uani
O2A O 0.5825(3) 0.3723(8) 0.2530(9) 0.0230 Uani
O3C O 0.4266(4) 0.3451(9) 0.2532(10) 0.0280 Uani
O4B O 0.5740(4) 0.6503(8) 0.4497(10) 0.0243 Uani
O5A O 0.4916(3) 0.6067(5) 0.1099(13) 0.0163 Uani
H5A H 0.531(4) 0.662(10) 0.154(15) 0.0600 Uiso
O6 O 0.3953(3) 0.8485(7) 0.1171(12) 0.0373 Uani
C9 C 0.3729(5) 0.9210(11) 0.2388(14) 0.0293 Uani
H6 H 0.3251 0.9438 0.2328 0.0350 Uiso
N1 N 0.4079(4) 0.9747(11) 0.3847(12) 0.0393 Uani
C10 C 0.3750(6) 1.0537(13) 0.5332(16) 0.0470 Uani
H7 H 0.3258 1.0668 0.5056 0.0700 Uiso
H8 H 0.3970 1.1492 0.5470 0.0700 Uiso
H9 H 0.3799 0.9984 0.6473 0.0700 Uiso
C11 C 0.4818(6) 0.9497(14) 0.3955(18) 0.0520 Uani
H10 H 0.4924 0.8949 0.5073 0.0780 Uiso
H11 H 0.5060 1.0434 0.3982 0.0780 Uiso
H12 H 0.4969 0.8937 0.2884 0.0780 Uiso
loop_
_atom_site_aniso_label
_atom_site_aniso_U_11
_atom_site_aniso_U_22
_atom_site_aniso_U_33
_atom_site_aniso_U_23
_atom_site_aniso_U_13
_atom_site_aniso_U_12
Sc1 0.0092(5) 0.0223(6) 0.0109(5) -0.0005(7) 0.0001(6) -0.0002(7)
O1 0.019(4) 0.043(5) 0.021(4) 0.000(4) 0.010(4) 0.012(3)
O2 0.017(4) 0.039(4) 0.013(4) 0.003(3) 0.002(4) 0.015(3)
C1 0.013(4) 0.021(5) 0.028(5) -0.010(6) -0.012(6) 0.009(3)
C2 0.018(4) 0.020(4) 0.016(4) 0.011(5) -0.002(6) 0.002(3)
C3 0.012(5) 0.042(7) 0.015(5) 0.010(5) 0.007(4) 0.008(4)
C4 0.027(5) 0.032(6) 0.017(5) 0.006(5) 0.011(5) 0.004(5)
C5 0.012(4) 0.023(4) 0.018(4) -0.006(6) -0.007(6) 0.005(3)
C6 0.017(5) 0.035(6) 0.022(6) -0.019(6) 0.001(4) 0.010(4)
C7 0.027(5) 0.034(6) 0.001(4) -0.002(5) 0.003(4) 0.011(5)
C8 0.020(4) 0.024(4) 0.021(5) -0.017(6) 0.012(6) 0.001(4)
O3 0.020(4) 0.045(5) 0.019(4) 0.002(4) -0.002(4) 0.016(4)
O4 0.020(4) 0.031(4) 0.022(4) -0.001(4) -0.009(4) 0.010(3)
O5 0.023(3) 0.022(3) 0.004(2) 0.004(4) 0.000(4) -0.002(2)
Sc1A 0.0092 0.0223 0.0109 0.0005 -0.0001 -0.0002
Sc1C 0.0092 0.0223 0.0109 -0.0005 -0.0001 0.0002
Sc1B 0.0092 0.0223 0.0109 0.0005 0.0001 0.0002
O2A 0.017 0.039 0.013 -0.003 -0.002 0.015
O3C 0.02 0.045 0.019 0.002 0.002 -0.016
O4B 0.02 0.031 0.022 0.001 -0.009 -0.01
O5A 0.023 0.022 0.004 -0.004 0 -0.002
O6 0.054(4) 0.038(4) 0.020(3) -0.003(4) -0.008(5) 0.004(3)
C9 0.033(6) 0.026(6) 0.029(5) -0.003(5) 0.009(5) 0.007(5)
N1 0.036(5) 0.051(6) 0.031(6) -0.012(5) 0.002(4) 0.002(4)
C10 0.056(8) 0.031(6) 0.054(7) 0.001(6) 0.023(6) 0.013(6)
C11 0.048(7) 0.046(7) 0.062(9) -0.009(6) -0.015(6) 0.003(5)
loop_
_geom_bond_atom_site_label_1
_geom_bond_atom_site_label_2
_geom_bond_site_symmetry_1
_geom_bond_site_symmetry_2
Sc1 O1 1_555 1_555
O1 C1 1_555 1_555
O2 C1 1_555 1_555
C1 C2 1_555 1_555
C2 C3 1_555 1_555
C3 H1 1_555 1_555
C4 C3 1_555 1_555
H2 C4 1_555 1_555
C5 C4 1_555 1_555
C6 C5 1_555 1_555
H3 C6 1_555 1_555
C7 C2 1_555 1_555
H4 C7 1_555 1_555
C8 C5 1_555 1_555
O3 C8 1_555 1_555
O4 C8 1_555 1_555
O5 Sc1 1_555 1_555
H5 O5 1_555 1_555
O6 C9 1_555 1_555
C9 H6 1_555 1_555
N1 C9 1_555 1_555
C10 N1 1_555 1_555
H7 C10 1_555 1_555
H8 C10 1_555 1_555
H9 C10 1_555 1_555
C11 N1 1_555 1_555
H10 C11 1_555 1_555
H11 C11 1_555 1_555
H12 C11 1_555 1_555
Sc1A O2 1_555 1_555
Sc1C O3 1_555 1_555
Sc1B O4 1_555 1_555
O2A Sc1 1_555 1_555
O3C Sc1 1_555 1_555
O4B Sc1 1_555 1_555
O5A Sc1 1_555 1_555
H5A O5A 1_555 1_555
C6 C7 1_555 1_555
O5 Sc1A 1_555 1_555

#END
