
#######################################################################
#
#                 Cambridge Crystallographic Data Centre
#                                CCDC 
#
#######################################################################
#
# If this CIF has been generated from an entry in the Cambridge 
# Structural Database, then it will include bibliographic, chemical, 
# crystal, experimental, refinement or atomic coordinate data resulting 
# from the CCDC's data processing and validation procedures.
#
#######################################################################

data_LOCRUR
_chemical_formula_moiety         'C38 H28 In3 N1 O12 1+'
_symmetry_cell_setting           tetragonal
_symmetry_space_group_name_H-M   'I -4 2 d'
_symmetry_Int_Tables_number      122
_space_group_name_Hall           'I -4 2bw'
loop_
_symmetry_equiv_pos_site_id
_symmetry_equiv_pos_as_xyz
1 x,y,z
2 -x,-y,z
3 y,-x,-z
4 -y,x,-z
5 1/2-x,y,3/4-z
6 1/2+x,-y,3/4-z
7 1/2-y,-x,3/4+z
8 1/2+y,x,3/4+z
9 1/2+x,1/2+y,1/2+z
10 1/2-x,1/2-y,1/2+z
11 1/2+y,1/2-x,1/2-z
12 1/2-y,1/2+x,1/2-z
13 -x,1/2+y,1/4-z
14 x,1/2-y,1/4-z
15 -y,1/2-x,1/4+z
16 y,1/2+x,1/4+z
_cell_length_a                   17.9054(4)
_cell_length_b                   17.9054(4)
_cell_length_c                   10.7305(5)
_cell_angle_alpha                90
_cell_angle_beta                 90
_cell_angle_gamma                90
_cell_volume                     3440.23
loop_
_atom_site_label
_atom_site_type_symbol
_atom_site_fract_x
_atom_site_fract_y
_atom_site_fract_z
C8 C 0.0405(9) 0.4511(7) 0.1507(17)
C9 C 0.0839(14) 0.4051(14) 0.208(3)
C10 C 0.1298(15) 0.3466(19) 0.090(4)
N1 N -0.0000 0.5000 0.2500
C8A C -0.0405(9) 0.5489(7) 0.1507(17)
C8K C 0.0489(7) 0.5405(9) 0.3493(17)
C8J C -0.0489(7) 0.4595(9) 0.3493(17)
C9A C -0.0839(14) 0.5949(14) 0.208(3)
C9K C 0.0949(14) 0.5839(14) 0.292(3)
C9J C -0.0949(14) 0.4161(14) 0.292(3)
C10A C -0.1298(15) 0.6534(19) 0.090(4)
C10K C 0.1534(19) 0.6298(15) 0.410(4)
C10J C -0.1534(19) 0.3702(15) 0.410(4)
In1 In 0.5000 0.0000 0.2500
O1 O 0.5739(2) 0.0562(2) 0.4067(5)
O2 O 0.5968(2) 0.0726(3) 0.2081(5)
C1 C 0.6145(3) 0.0825(3) 0.3228(6)
C2 C 0.6844(3) 0.1280(3) 0.3527(6)
C3 C 0.6790(9) 0.1726(8) 0.4715(19)
C4 C 0.7122(9) 0.1752(8) 0.244(2)
C5 C 0.7525(7) 0.0746(6) 0.3365(9)
C6 C 0.7500 0.0060(6) 0.3750
C7 C 0.7666(7) 0.0534(10) 0.2004(15)
In1D In 1.0000 0.0000 0.5000
In1D_2 In 0.0000 0.0000 0.5000
O1D O 0.9261(2) 0.0562(2) 0.3433(5)
O1A O 0.4261(2) -0.0562(2) 0.4067(5)
O1E O 0.0739(2) -0.0562(2) 0.3433(5)
O1J O 0.5562(2) -0.0739(2) 0.0933(5)
O1K O 0.4438(2) 0.0739(2) 0.0933(5)
O2D O 0.9032(2) 0.0726(3) 0.5419(5)
O2A O 0.4032(2) -0.0726(3) 0.2081(5)
O2E O 0.0968(2) -0.0726(3) 0.5419(5)
O2J O 0.5726(3) -0.0968(2) 0.2919(5)
O2K O 0.4274(3) 0.0968(2) 0.2919(5)
C1D C 0.8855(3) 0.0825(3) 0.4272(6)
C1A C 0.3855(3) -0.0825(3) 0.3228(6)
C1E C 0.1145(3) -0.0825(3) 0.4272(6)
C2D C 0.8156(3) 0.1280(3) 0.3973(6)
C2A C 0.3156(3) -0.1280(3) 0.3527(6)
C2E C 0.1844(3) -0.1280(3) 0.3973(6)
C3D C 0.8210(9) 0.1726(8) 0.2785(19)
C3A C 0.3210(9) -0.1726(8) 0.4715(19)
C3E C 0.1790(9) -0.1726(8) 0.2785(19)
C4D C 0.7878(9) 0.1752(8) 0.506(2)
C4A C 0.2878(9) -0.1752(8) 0.244(2)
C4E C 0.2122(9) -0.1752(8) 0.506(2)
C5D C 0.7475(7) 0.0746(6) 0.4135(9)
C5A C 0.2475(7) -0.0746(6) 0.3365(9)
C5E C 0.2525(7) -0.0746(6) 0.4135(9)
C6A C 0.2500 -0.0060(6) 0.3750
C7D C 0.7334(7) 0.0534(10) 0.5496(15)
C7A C 0.2334(7) -0.0534(10) 0.2004(15)
C7E C 0.2666(7) -0.0534(10) 0.5496(15)
loop_
_geom_bond_atom_site_label_1
_geom_bond_atom_site_label_2
_geom_bond_site_symmetry_1
_geom_bond_site_symmetry_2
In1 O1 1_555 1_555
O1 C1 1_555 1_555
O2 In1 1_555 1_555
C1 O2 1_555 1_555
C2 C1 1_555 1_555
C3 C2 1_555 1_555
C4 C2 1_555 1_555
C5 C2 1_555 1_555
C6 C5 1_555 1_555
C7 C5 1_555 1_555
C8 C9 1_555 1_555
C9 C10 1_555 1_555
N1 C8 1_555 1_555
In1D O1D 1_555 1_555
In1D_2 O1E 1_555 1_555
O1D C1D 1_555 1_555
O1A In1 1_555 1_555
O1E C1E 1_555 1_555
O1J In1 1_555 1_555
O1K In1 1_555 1_555
O2D In1D 1_555 1_555
O2A In1 1_555 1_555
O2E In1D_2 1_555 1_555
O2J In1 1_555 1_555
O2K In1 1_555 1_555
C1D O2D 1_555 1_555
C1A O1A 1_555 1_555
C1E O2E 1_555 1_555
C2D C5 1_555 1_555
C2A C1A 1_555 1_555
C2E C1E 1_555 1_555
C3D C2D 1_555 1_555
C3A C2A 1_555 1_555
C3E C2E 1_555 1_555
C4D C2D 1_555 1_555
C4A C2A 1_555 1_555
C4E C2E 1_555 1_555
C5D C2 1_555 1_555
C5A C2A 1_555 1_555
C5E C2A 1_555 1_555
C6A C5A 1_555 1_555
C7D C5D 1_555 1_555
C7A C5A 1_555 1_555
C7E C5E 1_555 1_555
C8A N1 1_555 1_555
C8K N1 1_555 1_555
C8J N1 1_555 1_555
C9A C8A 1_555 1_555
C9K C8K 1_555 1_555
C9J C8J 1_555 1_555
C10A C9A 1_555 1_555
C10K C9K 1_555 1_555
C10J C9J 1_555 1_555
C5 C5D 1_555 1_555
C6 C5D 1_555 1_555
O2A C1A 1_555 1_555
C1D C2D 1_555 1_555
C2D C5D 1_555 1_555
C2E C5A 1_555 1_555
C2E C5E 1_555 1_555
C5A C5E 1_555 1_555
C5E C6A 1_555 1_555

#END
