
#######################################################################
#
#                 Cambridge Crystallographic Data Centre
#                                CCDC 
#
#######################################################################
#
# If this CIF has been generated from an entry in the Cambridge 
# Structural Database, then it will include bibliographic, chemical, 
# crystal, experimental, refinement or atomic coordinate data resulting 
# from the CCDC's data processing and validation procedures.
#
#######################################################################

data_NODKEX
_chemical_formula_moiety         'C40 H20 In3 N2 O12'
_symmetry_cell_setting           orthorhombic
_symmetry_space_group_name_H-M   'I 21 21 21'
_symmetry_Int_Tables_number      24
_space_group_name_Hall           'I 2b 2c'
loop_
_symmetry_equiv_pos_site_id
_symmetry_equiv_pos_as_xyz
1 x,y,z
2 -x,1/2-y,z
3 x,-y,1/2-z
4 -x,1/2+y,1/2-z
5 1/2+x,1/2+y,1/2+z
6 1/2-x,-y,1/2+z
7 1/2+x,1/2-y,-z
8 1/2-x,y,-z
_cell_length_a                   10.749(2)
_cell_length_b                   18.058(3)
_cell_length_c                   18.058
_cell_angle_alpha                90
_cell_angle_beta                 90
_cell_angle_gamma                90
_cell_volume                     3505.16
loop_
_atom_site_label
_atom_site_type_symbol
_atom_site_fract_x
_atom_site_fract_y
_atom_site_fract_z
_atom_site_U_iso_or_equiv
_atom_site_thermal_displace_type
In1 In 0.12858(7) 0.0000 0.2500 0.0498 Uani
O1 O 0.1697(6) 0.0993(3) 0.3201(3) 0.0567 Uani
O2 O -0.0285(6) 0.0739(3) 0.3076(3) 0.0640 Uani
O3 O 0.2846(6) -0.0533(3) 0.3255(3) 0.0590 Uani
O4 O 0.0870(7) -0.0711(3) 0.3470(3) 0.0583 Uani
C1 C 0.0256(8) 0.1853(4) 0.3743(4) 0.0517 Uani
C2 C 0.1309(13) 0.2075(7) 0.4267(6) 0.1117 Uani
C3 C -0.1024(17) 0.1943(8) 0.4074(8) 0.0537 Uani
C4 C -0.0384(13) 0.2467(11) 0.3241(8) 0.0450 Uani
C5 C -0.0408(13) 0.2410(10) 0.2532(11) 0.0610 Uani
C6 C -0.1682(18) 0.2285(10) 0.2998(12) 0.0770 Uani
C7 C 0.0548(10) 0.1151(5) 0.3328(5) 0.0537 Uani
C8 C 0.2302(9) -0.1258(4) 0.4344(4) 0.0547 Uani
C9 C 0.120(2) -0.1655(8) 0.4688(9) 0.0577 Uani
C10 C 0.2901(14) -0.0738(8) 0.4973(13) 0.0477 Uani
C11 C 0.424(2) -0.0525(12) 0.4860(9) 0.0817 Uani
C12 C 0.2151(14) -0.0011(10) 0.5072(12) 0.0610 Uani
C13 C 0.3399(14) -0.1803(8) 0.4176(8) 0.1320 Uiso
C14 C 0.2003(10) -0.0817(4) 0.3647(5) 0.0513 Uani
In1A In -0.12858(7) 0.5000 0.2500 0.0498 Uani
In1E In 0.37142(7) 0.0000 0.7500 0.0498 Uani
O1A O -0.1697(6) 0.4007(3) 0.3201(3) 0.0567 Uani
O1B O 0.1697(6) -0.0993(3) 0.1799(3) 0.0567 Uani
O2A O 0.0285(6) 0.4261(3) 0.3076(3) 0.0640 Uani
O2B O -0.0285(6) -0.0739(3) 0.1924(3) 0.0640 Uani
O3G O 0.2154(6) -0.0533(3) 0.6745(3) 0.0590 Uani
O3B O 0.2846(6) 0.0533(3) 0.1745(3) 0.0590 Uani
O4G O 0.4130(7) -0.0711(3) 0.6530(3) 0.0583 Uani
O4B O 0.0870(7) 0.0711(3) 0.1530(3) 0.0583 Uani
C1A C -0.0256(8) 0.3147(4) 0.3743(4) 0.0517 Uani
C2A C -0.1309(13) 0.2925(7) 0.4267(6) 0.1117 Uani
C3A C 0.1024(17) 0.3057(8) 0.4074(8) 0.0537 Uani
C4A C 0.0384(13) 0.2533(11) 0.3241(8) 0.0450 Uani
C5A C 0.0408(13) 0.2590(10) 0.2532(11) 0.0610 Uani
C6A C 0.1682(18) 0.2715(10) 0.2998(12) 0.0770 Uani
C7A C -0.0548(10) 0.3849(5) 0.3328(5) 0.0537 Uani
C8G C 0.2698(9) -0.1258(4) 0.5656(4) 0.0547 Uani
C9G C 0.380(2) -0.1655(8) 0.5312(9) 0.0577 Uani
C10G C 0.2099(14) -0.0738(8) 0.5027(13) 0.0477 Uani
C11G C 0.076(2) -0.0525(12) 0.5140(9) 0.0817 Uani
C12G C 0.2849(14) -0.0011(10) 0.4928(12) 0.0610 Uani
C13G C 0.1601(14) -0.1803(8) 0.5824(8) 0.1320 Uiso
C14G C 0.2997(10) -0.0817(4) 0.6353(5) 0.0513 Uani
C15 C -0.4662(17) 0.0494(10) 0.2903(8) 0.1580 Uiso
C16 C -0.401(3) 0.0935(14) 0.3485(14) 0.2600 Uiso
H1 H -0.3291 0.1198 0.3295 0.3120 Uiso
H2 H -0.3777 0.0639 0.3912 0.3120 Uiso
C17 C -0.524(3) 0.1507(18) 0.3659(15) 0.3320 Uiso
H3 H -0.5036 0.1840 0.4055 0.4990 Uiso
H4 H -0.5954 0.1216 0.3798 0.4990 Uiso
H5 H -0.5436 0.1787 0.3222 0.4990 Uiso
C18 C -0.2670(15) -0.0343(7) 0.3017(8) 0.1360 Uiso
C19 C -0.328(2) -0.0846(11) 0.3509(12) 0.2010 Uiso
H6 H -0.3776 -0.1205 0.3237 0.2420 Uiso
H7 H -0.3821 -0.0584 0.3852 0.2420 Uiso
C20 C -0.215(3) -0.1240(13) 0.3937(14) 0.2590 Uiso
H8 H -0.2473 -0.1583 0.4295 0.3880 Uiso
H9 H -0.1658 -0.0871 0.4184 0.3880 Uiso
H10 H -0.1640 -0.1501 0.3587 0.3880 Uiso
N1 N -0.3667(10) -0.0099(11) 0.2609(11) 0.0670 Uiso
C15B C -0.4662(17) -0.0494(10) 0.2097(8) 0.1580 Uiso
C16B C -0.401(3) -0.0935(14) 0.1515(14) 0.2600 Uiso
H1B H -0.3291 -0.1198 0.1705 0.3120 Uiso
H2B H -0.3777 -0.0639 0.1088 0.3120 Uiso
C17B C -0.524(3) -0.1507(18) 0.1341(15) 0.3320 Uiso
H3B H -0.5036 -0.1840 0.0945 0.4990 Uiso
H4B H -0.5954 -0.1216 0.1202 0.4990 Uiso
H5B H -0.5436 -0.1787 0.1778 0.4990 Uiso
C18B C -0.2670(15) 0.0343(7) 0.1983(8) 0.1360 Uiso
C19B C -0.328(2) 0.0846(11) 0.1491(12) 0.2010 Uiso
H6B H -0.3776 0.1205 0.1763 0.2420 Uiso
H7B H -0.3821 0.0584 0.1148 0.2420 Uiso
C20B C -0.215(3) 0.1240(13) 0.1063(14) 0.2590 Uiso
H8B H -0.2473 0.1583 0.0705 0.3880 Uiso
H9B H -0.1658 0.0871 0.0816 0.3880 Uiso
H10B H -0.1640 0.1501 0.1413 0.3880 Uiso
N1B N -0.3667(10) 0.0099(11) 0.2391(11) 0.0670 Uiso
loop_
_atom_site_aniso_label
_atom_site_aniso_U_11
_atom_site_aniso_U_22
_atom_site_aniso_U_33
_atom_site_aniso_U_23
_atom_site_aniso_U_13
_atom_site_aniso_U_12
In1 0.0621(5) 0.0392(3) 0.0482(4) -0.0021(6) 0.000 0.000
O1 0.068(5) 0.050(3) 0.052(4) -0.009(3) -0.004(3) 0.009(3)
O2 0.077(5) 0.052(3) 0.063(4) -0.004(3) -0.002(3) -0.001(3)
O3 0.078(5) 0.052(3) 0.047(3) -0.004(3) -0.007(3) -0.003(3)
O4 0.069(5) 0.050(3) 0.056(4) 0.003(3) -0.011(3) -0.005(3)
C1 0.069(6) 0.041(4) 0.045(4) 0.007(4) 0.009(4) 0.011(4)
C2 0.094(9) 0.149(11) 0.092(8) -0.059(8) -0.024(9) 0.002(10)
C3 0.082(14) 0.045(8) 0.034(8) 0.009(6) 0.001(8) -0.009(9)
C4 0.047(15) 0.037(8) 0.051(8) 0.012(8) -0.002(7) -0.003(12)
C5 0.083(17) 0.051(10) 0.049(7) -0.022(14) -0.035(16) 0.010(11)
C6 0.055(12) 0.077(13) 0.099(15) -0.012(12) -0.002(11) 0.002(10)
C7 0.065(7) 0.054(5) 0.042(5) 0.002(4) -0.004(5) -0.011(5)
C8 0.081(7) 0.041(4) 0.042(5) -0.003(4) -0.001(4) 0.007(4)
C9 0.061(12) 0.053(9) 0.059(10) 0.018(8) -0.011(11) -0.017(10)
C10 0.056(16) 0.048(8) 0.039(8) -0.007(8) 0.003(15) -0.001(7)
C11 0.095(16) 0.116(16) 0.034(10) 0.000(10) 0.010(10) -0.046(14)
C12 0.073(18) 0.043(6) 0.067(12) 0.040(14) 0.020(12) 0.004(15)
C14 0.072(8) 0.035(4) 0.047(5) -0.007(4) -0.002(5) -0.013(5)
In1A 0.0621 0.0392 0.0482 0.0021 0 0
In1E 0.0621 0.0392 0.0482 0.0021 0 0
O1A 0.068 0.05 0.052 0.009 0.004 0.009
O1B 0.068 0.05 0.052 -0.009 0.004 -0.009
O2A 0.077 0.052 0.063 0.004 0.002 -0.001
O2B 0.077 0.052 0.063 -0.004 0.002 0.001
O3G 0.078 0.052 0.047 0.004 -0.007 0.003
O3B 0.078 0.052 0.047 -0.004 0.007 0.003
O4G 0.069 0.05 0.056 -0.003 -0.011 0.005
O4B 0.069 0.05 0.056 0.003 0.011 0.005
C1A 0.069 0.041 0.045 -0.007 -0.009 0.011
C2A 0.094 0.149 0.092 0.059 0.024 0.002
C3A 0.082 0.045 0.034 -0.009 -0.001 -0.009
C4A 0.047 0.037 0.051 -0.012 0.002 -0.003
C5A 0.083 0.051 0.049 0.022 0.035 0.01
C6A 0.055 0.077 0.099 0.012 0.002 0.002
C7A 0.065 0.054 0.042 -0.002 0.004 -0.011
C8G 0.081 0.041 0.042 0.003 -0.001 -0.007
C9G 0.061 0.053 0.059 -0.018 -0.011 0.017
C10G 0.056 0.048 0.039 0.007 0.003 0.001
C11G 0.095 0.116 0.034 0 0.01 0.046
C12G 0.073 0.043 0.067 -0.04 0.02 -0.004
C14G 0.072 0.035 0.047 0.007 -0.002 0.013
loop_
_geom_bond_atom_site_label_1
_geom_bond_atom_site_label_2
_geom_bond_site_symmetry_1
_geom_bond_site_symmetry_2
In1 O1 1_555 1_555
O1 C7 1_555 1_555
O2 In1 1_555 1_555
O3 In1 1_555 1_555
O4 In1 1_555 1_555
C1 C2 1_555 1_555
C3 C1 1_555 1_555
C4 C1 1_555 1_555
C5 C4 1_555 1_555
C6 C4 1_555 1_555
C7 O2 1_555 1_555
C8 C9 1_555 1_555
C10 C8 1_555 1_555
C11 C10 1_555 1_555
C12 C10 1_555 1_555
C13 C8 1_555 1_555
C14 O3 1_555 1_555
C15 C16 1_555 1_555
C16 H1 1_555 1_555
H2 C16 1_555 1_555
C17 C16 1_555 1_555
H3 C17 1_555 1_555
H4 C17 1_555 1_555
H5 C17 1_555 1_555
C18 C19 1_555 1_555
C19 H6 1_555 1_555
H7 C19 1_555 1_555
C20 C19 1_555 1_555
H8 C20 1_555 1_555
H9 C20 1_555 1_555
H10 C20 1_555 1_555
N1 C15 1_555 1_555
In1A O1A 1_555 1_555
In1E O3G 1_555 1_555
O1A C7A 1_555 1_555
O1B In1 1_555 1_555
O2A In1A 1_555 1_555
O2B In1 1_555 1_555
O3G C14G 1_555 1_555
O3B In1 1_555 1_555
O4G In1E 1_555 1_555
O4B In1 1_555 1_555
C1A C4 1_555 1_555
C2A C1A 1_555 1_555
C3A C1A 1_555 1_555
C4A C1 1_555 1_555
C5A C4 1_555 1_555
C6A C4A 1_555 1_555
C7A O2A 1_555 1_555
C8G C10 1_555 1_555
C9G C8G 1_555 1_555
C10G C8 1_555 1_555
C11G C10G 1_555 1_555
C12G C10 1_555 1_555
C13G C8G 1_555 1_555
C14G O4G 1_555 1_555
C15B N1 1_555 1_555
C16B C15B 1_555 1_555
H1B C16B 1_555 1_555
H2B C16B 1_555 1_555
C17B C16B 1_555 1_555
H3B C17B 1_555 1_555
H4B C17B 1_555 1_555
H5B C17B 1_555 1_555
C18B N1 1_555 1_555
C19B C18B 1_555 1_555
H6B C19B 1_555 1_555
H7B C19B 1_555 1_555
C20B C19B 1_555 1_555
H8B C20B 1_555 1_555
H9B C20B 1_555 1_555
H10B C20B 1_555 1_555
N1B C15 1_555 1_555
O4 C14 1_555 1_555
C1 C7 1_555 1_555
C4 C4A 1_555 1_555
C5 C6 1_555 1_555
C5 C4A 1_555 1_555
C5 C5A 1_555 1_555
C8 C14 1_555 1_555
C10 C10G 1_555 1_555
C12 C10G 1_555 1_555
C12 C12G 1_555 1_555
C18 N1 1_555 1_555
C18 N1B 1_555 1_555
N1 N1B 1_555 1_555
C1A C4A 1_555 1_555
C1A C7A 1_555 1_555
C4A C5A 1_555 1_555
C5A C6A 1_555 1_555
C8G C10G 1_555 1_555
C8G C14G 1_555 1_555
C10G C12G 1_555 1_555
C15B N1B 1_555 1_555
C18B N1B 1_555 1_555

#END
