
#######################################################################
#
#                 Cambridge Crystallographic Data Centre
#                                CCDC 
#
#######################################################################
#
# If this CIF has been generated from an entry in the Cambridge 
# Structural Database, then it will include bibliographic, chemical, 
# crystal, experimental, refinement or atomic coordinate data resulting 
# from the CCDC's data processing and validation procedures.
#
#######################################################################

data_NODKAT
_chemical_formula_moiety         '(C26 H39 In1 N2 O8)n'
_symmetry_cell_setting           orthorhombic
_symmetry_space_group_name_H-M   'P 21 21 21'
_symmetry_Int_Tables_number      19
_space_group_name_Hall           'P 2ac 2ab'
loop_
_symmetry_equiv_pos_site_id
_symmetry_equiv_pos_as_xyz
1 x,y,z
2 1/2-x,-y,1/2+z
3 -x,1/2+y,1/2-z
4 1/2+x,1/2-y,-z
_cell_length_a                   12.3398(2)
_cell_length_b                   13.4958(3)
_cell_length_c                   16.9799(3)
_cell_angle_alpha                90
_cell_angle_beta                 90
_cell_angle_gamma                90
_cell_volume                     2827.76
loop_
_atom_site_label
_atom_site_type_symbol
_atom_site_fract_x
_atom_site_fract_y
_atom_site_fract_z
_atom_site_U_iso_or_equiv
_atom_site_thermal_displace_type
In1 In 0.28603(3) 0.10486(3) 1.130983(18) 0.0267 Uani
O1 O 0.2707(3) 0.2850(2) 1.10412(17) 0.0393 Uani
O2 O 0.3055(3) 0.1707(3) 1.01572(17) 0.0430 Uani
O3 O 0.6362(3) 0.4846(3) 0.92970(19) 0.0500 Uani
O4 O 0.6149(2) 0.3725(3) 0.83737(19) 0.0390 Uani
O5 O 0.3782(3) -0.0261(2) 1.07369(18) 0.0310 Uani
O6 O 0.2958(3) -0.0464(2) 1.18728(17) 0.0300 Uani
O7 O 0.6808(3) -0.3389(2) 1.24442(16) 0.0322 Uani
O8 O 0.5467(3) -0.3588(2) 1.32717(18) 0.0347 Uani
C1 C 0.3126(4) 0.3410(4) 0.9721(3) 0.0337 Uani
C2 C 0.4268(4) 0.3893(4) 0.9861(3) 0.0307 Uani
C3 C 0.4543(4) 0.4340(4) 0.9045(3) 0.0350 Uani
H1 H 0.4318 0.5036 0.9046 0.0420 Uiso
C4 C 0.3847(4) 0.3781(5) 0.8424(2) 0.0450 Uani
H2 H 0.3342 0.4229 0.8170 0.0540 Uiso
H3 H 0.4305 0.3483 0.8024 0.0540 Uiso
C5 C 0.3249(4) 0.2993(4) 0.8885(3) 0.0473 Uani
H4 H 0.3659 0.2380 0.8893 0.0570 Uiso
H5 H 0.2544 0.2865 0.8653 0.0570 Uiso
C6 C 0.2215(4) 0.4166(4) 0.9738(3) 0.0563 Uani
H6 H 0.1538 0.3840 0.9636 0.0850 Uiso
H7 H 0.2341 0.4660 0.9342 0.0850 Uiso
H8 H 0.2190 0.4475 1.0247 0.0850 Uiso
C7 C 0.5107(4) 0.3107(4) 1.0114(3) 0.0427 Uani
H9 H 0.4912 0.2845 1.0620 0.0640 Uiso
H10 H 0.5812 0.3405 1.0144 0.0640 Uiso
H11 H 0.5119 0.2579 0.9734 0.0640 Uiso
C8 C 0.4265(5) 0.4673(4) 1.0495(3) 0.0597 Uani
H12 H 0.4106 0.4370 1.0994 0.0890 Uiso
H13 H 0.3724 0.5162 1.0378 0.0890 Uiso
H14 H 0.4964 0.4984 1.0519 0.0890 Uiso
C9 C 0.2928(4) 0.2613(4) 1.0350(3) 0.0343 Uani
C10 C 0.5766(5) 0.4303(4) 0.8890(3) 0.0403 Uani
C11 C 0.3865(4) -0.1898(3) 1.1315(3) 0.0293 Uani
C12 C 0.5018(4) -0.2016(4) 1.1704(3) 0.0327 Uani
C13 C 0.5011(4) -0.3131(4) 1.1937(3) 0.0307 Uani
H15 H 0.5238 -0.3504 1.1471 0.0370 Uiso
C14 C 0.3834(4) -0.3424(4) 1.2107(3) 0.0373 Uani
H16 H 0.3636 -0.4011 1.1811 0.0450 Uiso
H17 H 0.3733 -0.3557 1.2664 0.0450 Uiso
C15 C 0.3156(4) -0.2542(4) 1.1852(3) 0.0417 Uani
H18 H 0.2925 -0.2165 1.2308 0.0500 Uiso
H19 H 0.2517 -0.2765 1.1570 0.0500 Uiso
C16 C 0.3825(5) -0.2293(4) 1.0471(3) 0.0623 Uani
H20 H 0.4283 -0.1894 1.0141 0.0940 Uiso
H21 H 0.3094 -0.2265 1.0280 0.0940 Uiso
H22 H 0.4075 -0.2966 1.0463 0.0940 Uiso
C17 C 0.5948(4) -0.1745(5) 1.1152(3) 0.0777 Uani
H23 H 0.5913 -0.1052 1.1029 0.1160 Uiso
H24 H 0.5890 -0.2125 1.0676 0.1160 Uiso
H25 H 0.6627 -0.1889 1.1404 0.1160 Uiso
C18 C 0.5114(5) -0.1382(4) 1.2446(3) 0.0523 Uani
H26 H 0.4537 -0.1546 1.2802 0.0780 Uiso
H27 H 0.5067 -0.0694 1.2306 0.0780 Uiso
H28 H 0.5798 -0.1508 1.2695 0.0780 Uiso
C19 C 0.3519(4) -0.0816(3) 1.1307(3) 0.0300 Uani
C20 C 0.5806(4) -0.3380(3) 1.2589(3) 0.0297 Uani
In1C In 0.78603(3) 0.39514(3) 0.869017(18) 0.0267 Uani
In1B In 0.71397(3) -0.39514(3) 1.369017(18) 0.0267 Uani
O3C O 0.1362(3) 0.0154(3) 1.07030(19) 0.0500 Uani
O4C O 0.1149(2) 0.1275(3) 1.16263(19) 0.0390 Uani
O7B O 0.3192(3) 0.1611(2) 1.25558(16) 0.0322 Uani
O8B O 0.4533(3) 0.1412(2) 1.17283(18) 0.0347 Uani
C21 C 0.4111(5) 0.0776(4) 0.7841(3) 0.0413 Uani
H29 H 0.3640 0.0798 0.7415 0.0500 Uiso
C22 C 0.5548(4) 0.0959(5) 0.8579(3) 0.0517 Uani
H30 H 0.6243 0.1130 0.8743 0.0620 Uiso
C23 C 0.4794(5) 0.0487(4) 0.9011(3) 0.0513 Uani
H31 H 0.4864 0.0278 0.9531 0.0610 Uiso
C24 C 0.5763(6) 0.1647(5) 0.7236(4) 0.0773 Uani
H32 H 0.6204 0.2159 0.7475 0.0930 Uiso
H33 H 0.6242 0.1171 0.6987 0.0930 Uiso
C25 C 0.5055(6) 0.2082(5) 0.6650(4) 0.0967 Uani
H34 H 0.5483 0.2418 0.6260 0.1450 Uiso
H35 H 0.4577 0.2547 0.6899 0.1450 Uiso
H36 H 0.4637 0.1570 0.6402 0.1450 Uiso
C26 C 0.2849(4) -0.0056(4) 0.8784(3) 0.0577 Uani
H37 H 0.2355 -0.0060 0.8347 0.0870 Uiso
H38 H 0.2551 0.0335 0.9203 0.0870 Uiso
H39 H 0.2961 -0.0723 0.8964 0.0870 Uiso
N1 N 0.5108(4) 0.1144(4) 0.7851(3) 0.0477 Uani
N2 N 0.3892(4) 0.0372(3) 0.8533(3) 0.0410 Uani
loop_
_atom_site_aniso_label
_atom_site_aniso_U_11
_atom_site_aniso_U_22
_atom_site_aniso_U_33
_atom_site_aniso_U_23
_atom_site_aniso_U_13
_atom_site_aniso_U_12
In1 0.02998(19) 0.02148(16) 0.02857(17) -0.00007(19) -0.0004(2) 0.0019(2)
O1 0.046(2) 0.038(2) 0.034(2) 0.0090(17) 0.0066(19) 0.0063(19)
O2 0.055(3) 0.026(2) 0.048(2) 0.0058(18) -0.013(2) 0.001(2)
O3 0.039(2) 0.066(3) 0.045(2) -0.007(2) 0.006(2) -0.020(2)
O4 0.032(2) 0.040(3) 0.045(2) -0.0029(19) 0.0029(18) 0.0082(19)
O5 0.042(2) 0.021(2) 0.030(2) 0.0052(18) -0.0002(18) 0.0057(18)
O6 0.032(2) 0.0256(19) 0.0323(18) 0.0004(15) 0.0036(19) 0.001(2)
O7 0.032(2) 0.033(2) 0.0315(19) 0.0026(16) -0.0025(18) 0.0088(18)
O8 0.043(2) 0.034(2) 0.027(2) 0.0027(18) 0.0022(18) -0.0004(18)
C1 0.033(4) 0.030(3) 0.038(3) 0.006(3) 0.003(3) 0.001(3)
C2 0.030(3) 0.027(3) 0.035(3) 0.008(3) 0.001(2) 0.000(3)
C3 0.033(3) 0.033(3) 0.039(3) 0.011(3) 0.004(3) 0.003(3)
C4 0.036(3) 0.066(5) 0.033(3) -0.003(3) 0.000(3) 0.006(3)
C5 0.059(4) 0.042(4) 0.041(4) 0.007(3) -0.018(3) -0.005(3)
C6 0.041(3) 0.050(4) 0.078(4) 0.028(3) 0.012(3) 0.015(4)
C7 0.033(3) 0.038(4) 0.057(4) 0.013(3) -0.005(3) -0.001(3)
C8 0.079(5) 0.039(4) 0.061(4) -0.016(3) 0.016(4) -0.012(4)
C9 0.024(3) 0.032(3) 0.047(3) 0.013(3) -0.010(3) -0.005(3)
C10 0.036(4) 0.044(4) 0.041(4) 0.017(3) 0.004(3) 0.000(3)
C11 0.040(3) 0.021(3) 0.027(3) -0.003(3) -0.003(3) 0.006(2)
C12 0.030(3) 0.032(3) 0.036(3) 0.002(3) -0.003(3) 0.010(3)
C13 0.038(3) 0.025(3) 0.029(3) 0.000(3) -0.001(3) 0.009(3)
C14 0.043(4) 0.027(3) 0.042(3) -0.001(3) -0.008(3) 0.001(3)
C15 0.035(4) 0.030(3) 0.060(4) 0.006(3) -0.010(3) 0.000(3)
C16 0.113(6) 0.030(4) 0.044(4) -0.015(3) -0.021(4) 0.015(4)
C17 0.044(4) 0.081(5) 0.108(5) 0.064(5) 0.034(4) 0.013(3)
C18 0.055(4) 0.025(3) 0.077(4) -0.004(3) -0.036(3) 0.005(3)
C19 0.025(3) 0.027(3) 0.038(3) -0.003(3) -0.016(3) 0.003(2)
C20 0.037(4) 0.014(3) 0.038(4) -0.007(3) -0.007(3) 0.006(3)
In1C 0.02998 0.02148 0.02857 -7e-05 0.0004 -0.0019
In1B 0.02998 0.02148 0.02857 7e-05 -0.0004 -0.0019
O3C 0.039 0.066 0.045 -0.007 -0.006 0.02
O4C 0.032 0.04 0.045 -0.0029 -0.0029 -0.0082
O7B 0.032 0.033 0.0315 -0.0026 -0.0025 -0.0088
O8B 0.043 0.034 0.027 -0.0027 0.0022 0.0004
C21 0.047(4) 0.036(4) 0.041(4) -0.011(3) -0.014(3) 0.005(3)
C22 0.044(4) 0.062(4) 0.049(4) -0.002(4) -0.009(3) -0.003(4)
C23 0.059(4) 0.058(4) 0.037(4) -0.006(3) -0.012(4) -0.006(3)
C24 0.124(7) 0.057(5) 0.051(5) -0.007(4) -0.017(5) -0.009(5)
C25 0.121(7) 0.060(6) 0.109(7) -0.017(5) 0.039(6) -0.005(5)
C26 0.068(4) 0.057(4) 0.048(3) -0.004(3) 0.000(4) -0.029(4)
N1 0.061(4) 0.047(3) 0.035(3) -0.004(3) 0.003(3) -0.007(3)
N2 0.050(3) 0.038(3) 0.035(3) -0.005(2) -0.013(3) -0.004(2)
loop_
_geom_bond_atom_site_label_1
_geom_bond_atom_site_label_2
_geom_bond_site_symmetry_1
_geom_bond_site_symmetry_2
In1 O1 1_555 1_555
O1 C9 1_555 1_555
O2 In1 1_555 1_555
O3 C10 1_555 1_555
O4 C10 1_555 1_555
O5 In1 1_555 1_555
O6 In1 1_555 1_555
O7 C20 1_555 1_555
O8 C20 1_555 1_555
C1 C2 1_555 1_555
C2 C3 1_555 1_555
C3 H1 1_555 1_555
C4 C3 1_555 1_555
H2 C4 1_555 1_555
H3 C4 1_555 1_555
C5 C1 1_555 1_555
H4 C5 1_555 1_555
H5 C5 1_555 1_555
C6 C1 1_555 1_555
H6 C6 1_555 1_555
H7 C6 1_555 1_555
H8 C6 1_555 1_555
C7 C2 1_555 1_555
H9 C7 1_555 1_555
H10 C7 1_555 1_555
H11 C7 1_555 1_555
C8 C2 1_555 1_555
H12 C8 1_555 1_555
H13 C8 1_555 1_555
H14 C8 1_555 1_555
C9 O2 1_555 1_555
C10 C3 1_555 1_555
C11 C12 1_555 1_555
C12 C13 1_555 1_555
C13 H15 1_555 1_555
C14 C13 1_555 1_555
H16 C14 1_555 1_555
H17 C14 1_555 1_555
C15 C11 1_555 1_555
H18 C15 1_555 1_555
H19 C15 1_555 1_555
C16 C11 1_555 1_555
H20 C16 1_555 1_555
H21 C16 1_555 1_555
H22 C16 1_555 1_555
C17 C12 1_555 1_555
H23 C17 1_555 1_555
H24 C17 1_555 1_555
H25 C17 1_555 1_555
C18 C12 1_555 1_555
H26 C18 1_555 1_555
H27 C18 1_555 1_555
H28 C18 1_555 1_555
C19 O5 1_555 1_555
C20 C13 1_555 1_555
C21 H29 1_555 1_555
C22 H30 1_555 1_555
C23 C22 1_555 1_555
H31 C23 1_555 1_555
C24 H32 1_555 1_555
H33 C24 1_555 1_555
C25 C24 1_555 1_555
H34 C25 1_555 1_555
H35 C25 1_555 1_555
H36 C25 1_555 1_555
C26 H37 1_555 1_555
H38 C26 1_555 1_555
H39 C26 1_555 1_555
N1 C21 1_555 1_555
N2 C21 1_555 1_555
In1C O3 1_555 1_555
In1B O7 1_555 1_555
O3C In1 1_555 1_555
O4C In1 1_555 1_555
O7B In1 1_555 1_555
O8B In1 1_555 1_555
O4 In1C 1_555 1_555
O6 C19 1_555 1_555
O8 In1B 1_555 1_555
C1 C9 1_555 1_555
C4 C5 1_555 1_555
C11 C19 1_555 1_555
C14 C15 1_555 1_555
C22 N1 1_555 1_555
C23 N2 1_555 1_555
C24 N1 1_555 1_555
C26 N2 1_555 1_555

#END
