
#######################################################################
#
#                 Cambridge Crystallographic Data Centre
#                                CCDC 
#
#######################################################################
#
# If this CIF has been generated from an entry in the Cambridge 
# Structural Database, then it will include bibliographic, chemical, 
# crystal, experimental, refinement or atomic coordinate data resulting 
# from the CCDC's data processing and validation procedures.
#
#######################################################################

data_MUHQAI
_chemical_formula_moiety         '(C24 H28 Cd1 N2 O6)n'
_symmetry_cell_setting           orthorhombic
_symmetry_space_group_name_H-M   'I 21 21 21'
_symmetry_Int_Tables_number      24
_space_group_name_Hall           'I 2b 2c'
loop_
_symmetry_equiv_pos_site_id
_symmetry_equiv_pos_as_xyz
1 x,y,z
2 -x,1/2-y,z
3 x,-y,1/2-z
4 1/2-x,y,-z
5 1/2+x,1/2+y,1/2+z
6 1/2-x,-y,1/2+z
7 1/2+x,1/2-y,-z
8 -x,1/2+y,1/2-z
_cell_length_a                   9.572(3)
_cell_length_b                   17.717(4)
_cell_length_c                   13.715(3)
_cell_angle_alpha                90
_cell_angle_beta                 90
_cell_angle_gamma                90
_cell_volume                     2325.89
loop_
_atom_site_label
_atom_site_type_symbol
_atom_site_fract_x
_atom_site_fract_y
_atom_site_fract_z
_atom_site_U_iso_or_equiv
_atom_site_thermal_displace_type
Cd1 Cd 1.0000 0.7500 -0.14475(3) 0.0341 Uani
O1 O 1.0000 0.7500 0.0218(4) 0.0890 Uani
H1 H 1.0676 0.7261 0.0418 0.1330 Uiso
O2 O 0.7383(5) 0.7854(2) -0.1260(3) 0.0507 Uani
O3 O 0.8479(4) 0.7926(3) -0.2660(3) 0.0590 Uani
C1 C 0.7390(6) 0.8017(3) -0.2147(5) 0.0410 Uani
C2 C 0.6116(6) 0.8356(3) -0.2613(5) 0.0430 Uani
H2 H 0.5284 0.8175 -0.2284 0.0520 Uiso
H3 H 0.6065 0.8202 -0.3291 0.0520 Uiso
C3 C 0.6175(5) 0.9217(3) -0.2553(4) 0.0353 Uani
C4 C 0.6177(7) 0.9568(3) -0.1666(5) 0.0463 Uani
H4 H 0.6162 0.9282 -0.1097 0.0560 Uiso
C5 C 0.6201(6) 0.9650(3) -0.3392(4) 0.0427 Uani
H5 H 0.6235 0.9415 -0.3998 0.0510 Uiso
N1 N 0.9293(14) 0.6268(8) -0.1556(7) 0.0347 Uani
C7 C 1.0084(9) 0.5685(3) -0.1206(4) 0.0583 Uani
H7 H 1.0978 0.5824 -0.1008 0.0700 Uiso
C8 C 0.9798(8) 0.4953(4) -0.1098(5) 0.0727 Uani
H8 H 1.0419 0.4606 -0.0830 0.0870 Uiso
C9 C 0.8518(13) 0.4770(6) -0.1419(8) 0.0497 Uani
C10 C 0.7598(14) 0.5326(6) -0.1770(8) 0.0503 Uani
H9 H 0.6702 0.5197 -0.1971 0.0610 Uiso
C13 C 0.8036(12) 0.6047(7) -0.1810(8) 0.0487 Uani
H11 H 0.7411 0.6410 -0.2032 0.0580 Uiso
C14 C 0.7277(15) 0.3875(5) -0.0520(7) 0.1163 Uani
H12 H 0.6768 0.3406 -0.0607 0.1390 Uiso
H13 H 0.6588 0.4274 -0.0569 0.1390 Uiso
C15 C 0.8103(14) 0.3946(6) -0.1359(9) 0.1190 Uani
H14 H 0.7577 0.3800 -0.1934 0.1430 Uiso
H15 H 0.8925 0.3628 -0.1312 0.1430 Uiso
Cd1B Cd 1.0000 1.2500 -0.35525(3) 0.0341 Uani
Cd1C Cd 0.5000 0.7500 0.14475(3) 0.0341 Uani
H1A H 0.9324 0.7739 0.0418 0.1330 Uiso
O2B O 0.7383(5) 1.2146(2) -0.3740(3) 0.0507 Uani
O2A O 1.2617(5) 0.7146(2) -0.1260(3) 0.0507 Uani
O3B O 0.8479(4) 1.2074(3) -0.2340(3) 0.0590 Uani
O3A O 1.1521(4) 0.7074(3) -0.2660(3) 0.0590 Uani
C1B C 0.7390(6) 1.1983(3) -0.2853(5) 0.0410 Uani
C2B C 0.6116(6) 1.1644(3) -0.2387(5) 0.0430 Uani
H2B H 0.5284 1.1825 -0.2716 0.0520 Uiso
H3B H 0.6065 1.1798 -0.1709 0.0520 Uiso
C3B C 0.6175(5) 1.0783(3) -0.2447(4) 0.0353 Uani
C4B C 0.6177(7) 1.0432(3) -0.3334(5) 0.0463 Uani
H4B H 0.6162 1.0718 -0.3903 0.0560 Uiso
C5B C 0.6201(6) 1.0350(3) -0.1608(4) 0.0427 Uani
H5B H 0.6235 1.0585 -0.1002 0.0510 Uiso
N1C N 0.5707(14) 0.6268(8) 0.1556(7) 0.0347 Uani
N1A N 1.0707(14) 0.8732(8) -0.1556(7) 0.0347 Uani
C7C C 0.4916(9) 0.5685(3) 0.1206(4) 0.0583 Uani
H7C H 0.4022 0.5824 0.1008 0.0700 Uiso
C8C C 0.5202(8) 0.4953(4) 0.1098(5) 0.0727 Uani
H8C H 0.4581 0.4606 0.0830 0.0870 Uiso
C9C C 0.6482(13) 0.4770(6) 0.1419(8) 0.0497 Uani
C10C C 0.7402(14) 0.5326(6) 0.1770(8) 0.0503 Uani
H9C H 0.8298 0.5197 0.1971 0.0610 Uiso
C13C C 0.6964(12) 0.6047(7) 0.1810(8) 0.0487 Uani
H11C H 0.7589 0.6410 0.2032 0.0580 Uiso
C14C C 0.7723(15) 0.3875(5) 0.0520(7) 0.1163 Uani
H12C H 0.8232 0.3406 0.0607 0.1390 Uiso
H13C H 0.8412 0.4274 0.0569 0.1390 Uiso
C15C C 0.6897(14) 0.3946(6) 0.1359(9) 0.1190 Uani
H14C H 0.7423 0.3800 0.1934 0.1430 Uiso
H15C H 0.6075 0.3628 0.1312 0.1430 Uiso
O4 O 0.3864(6) 0.6947(4) 0.4615(4) 0.0847 Uani
loop_
_atom_site_aniso_label
_atom_site_aniso_U_11
_atom_site_aniso_U_22
_atom_site_aniso_U_33
_atom_site_aniso_U_23
_atom_site_aniso_U_13
_atom_site_aniso_U_12
Cd1 0.0343 0.0343 0.0337 0 0 0.0016
O1 0.045 0.183 0.039 0 0 0.008
O2 0.054 0.048 0.05 0.0097 0 0.009
O3 0.041 0.089 0.047 0.003 0.001 0.021
C1 0.04 0.034 0.049 -0.005 -0.005 0.004
C2 0.033 0.038 0.058 0.004 -0.01 -0.002
C3 0.027 0.036 0.043 0.003 0.001 0.002
C4 0.047 0.039 0.053 0.008 -0.003 0.004
C5 0.043 0.042 0.043 -0.001 -0.003 0.007
N1 0.036 0.033 0.035 -0.003 0 0.005
C7 0.047 0.057 0.071 -0.001 -0.007 0.007
C8 0.06 0.048 0.11 -0.011 -0.013 0.012
C9 0.06 0.045 0.044 0.003 0.018 0.008
C10 0.049 0.043 0.059 -0.004 -0.009 -0.004
C13 0.045 0.045 0.056 0 -0.01 0.007
C14 0.193 0.073 0.083 0.033 0.065 0.067
C15 0.126 0.08 0.151 -0.016 0.009 -0.005
Cd1B 0.0343 0.0343 0.0337 0 0 -0.0016
Cd1C 0.0343(3) 0.0343(3) 0.0337(3) 0.000 0.000 -0.0016(3)
O2B 0.054 0.048 0.05 0.0097 0 -0.009
O2A 0.054 0.048 0.05 -0.0097 0 0.009
O3B 0.041 0.089 0.047 0.003 -0.001 -0.021
O3A 0.041 0.089 0.047 -0.003 -0.001 0.021
C1B 0.04 0.034 0.049 -0.005 0.005 -0.004
C2B 0.033 0.038 0.058 0.004 0.01 0.002
C3B 0.027 0.036 0.043 0.003 -0.001 -0.002
C4B 0.047 0.039 0.053 0.008 0.003 -0.004
C5B 0.043 0.042 0.043 -0.001 0.003 -0.007
N1C 0.036(5) 0.033(5) 0.035(8) 0.003(6) 0.000(6) -0.005(4)
N1A 0.036 0.033 0.035 0.003 0 0.005
C7C 0.047(3) 0.057(3) 0.071(4) 0.001(3) -0.007(5) -0.007(4)
C8C 0.060(4) 0.048(3) 0.110(5) 0.011(3) -0.013(4) -0.012(4)
C9C 0.060(6) 0.045(5) 0.044(6) -0.003(5) 0.018(6) -0.008(5)
C10C 0.049(6) 0.043(5) 0.059(7) 0.004(5) -0.009(5) 0.004(5)
C13C 0.045(6) 0.045(6) 0.056(7) 0.000(5) -0.010(5) -0.007(5)
C14C 0.193(8) 0.073(5) 0.083(5) -0.033(4) 0.065(6) -0.067(6)
C15C 0.126(8) 0.080(5) 0.151(9) 0.016(5) 0.009(7) 0.005(5)
O4 0.076(3) 0.114(4) 0.064(4) 0.007(3) -0.001(3) 0.027(3)
loop_
_geom_bond_atom_site_label_1
_geom_bond_atom_site_label_2
_geom_bond_site_symmetry_1
_geom_bond_site_symmetry_2
Cd1 O1 1_555 1_555
O1 H1 1_555 1_555
O2 Cd1 1_555 1_555
O3 Cd1 1_555 1_555
C1 O2 1_555 1_555
C2 C1 1_555 1_555
H2 C2 1_555 1_555
H3 C2 1_555 1_555
C3 C2 1_555 1_555
C4 C3 1_555 1_555
H4 C4 1_555 1_555
C5 C3 1_555 1_555
H5 C5 1_555 1_555
N1 Cd1 1_555 1_555
C7 N1 1_555 1_555
H7 C7 1_555 1_555
C8 C7 1_555 1_555
H8 C8 1_555 1_555
C9 C8 1_555 1_555
C10 C9 1_555 1_555
H9 C10 1_555 1_555
C13 N1 1_555 1_555
H11 C13 1_555 1_555
C14 H12 1_555 1_555
H13 C14 1_555 1_555
C15 C9 1_555 1_555
H14 C15 1_555 1_555
H15 C15 1_555 1_555
Cd1B O2B 1_555 1_555
Cd1C N1C 1_555 1_555
H1A O1 1_555 1_555
O2B C1B 1_555 1_555
O2A Cd1 1_555 1_555
O3B Cd1B 1_555 1_555
O3A Cd1 1_555 1_555
C1B O3B 1_555 1_555
C2B C1B 1_555 1_555
H2B C2B 1_555 1_555
H3B C2B 1_555 1_555
C3B C2B 1_555 1_555
C4B C5 1_555 1_555
H4B C4B 1_555 1_555
C5B C4 1_555 1_555
H5B C5B 1_555 1_555
N1C C7C 1_555 1_555
N1A Cd1 1_555 1_555
C7C H7C 1_555 1_555
C8C C7C 1_555 1_555
H8C C8C 1_555 1_555
C9C C8C 1_555 1_555
C10C C9C 1_555 1_555
H9C C10C 1_555 1_555
C13C N1C 1_555 1_555
H11C C13C 1_555 1_555
C14C C14 1_555 1_555
H12C C14C 1_555 1_555
H13C C14C 1_555 1_555
C15C C9C 1_555 1_555
H14C C15C 1_555 1_555
H15C C15C 1_555 1_555
O3 C1 1_555 1_555
C10 C13 1_555 1_555
C14 C15 1_555 1_555
C3B C4B 1_555 1_555
C3B C5B 1_555 1_555
C10C C13C 1_555 1_555
C14C C15C 1_555 1_555

#END
