
#######################################################################
#
#                 Cambridge Crystallographic Data Centre
#                                CCDC 
#
#######################################################################
#
# If this CIF has been generated from an entry in the Cambridge 
# Structural Database, then it will include bibliographic, chemical, 
# crystal, experimental, refinement or atomic coordinate data resulting 
# from the CCDC's data processing and validation procedures.
#
#######################################################################

data_COXDIE
_chemical_formula_moiety         '(C34 H38 Cu8 N24)n'
_symmetry_cell_setting           monoclinic
_symmetry_space_group_name_H-M   'C 2/c'
_symmetry_Int_Tables_number      15
_space_group_name_Hall           '-C 2yc'
loop_
_symmetry_equiv_pos_site_id
_symmetry_equiv_pos_as_xyz
1 x,y,z
2 -x,y,1/2-z
3 1/2+x,1/2+y,z
4 1/2-x,1/2+y,1/2-z
5 -x,-y,-z
6 x,-y,1/2+z
7 1/2-x,1/2-y,-z
8 1/2+x,1/2-y,1/2+z
_cell_length_a                   24.148(4)
_cell_length_b                   15.173(3)
_cell_length_c                   15.497(3)
_cell_angle_alpha                90
_cell_angle_beta                 118.979(2)
_cell_angle_gamma                90
_cell_volume                     4967.15
loop_
_atom_site_label
_atom_site_type_symbol
_atom_site_fract_x
_atom_site_fract_y
_atom_site_fract_z
Cu1 Cu 0.5000 0.2077(2) 0.7500
Cu2 Cu 0.23574(8) 0.14314(16) 0.45470(11)
Cu3 Cu 0.31542(9) 0.23144(18) 0.32811(12)
Cu4 Cu 0.56792(8) 0.38922(14) 0.51369(10)
Cu5 Cu 0.5000 0.4326(2) 0.2500
N1 N 0.4221(5) 0.2074(10) 0.6359(7)
N2 N 0.3217(6) 0.1814(10) 0.5269(7)
N3 N 0.3502(5) 0.2172(10) 0.4789(7)
N4 N 0.3914(6) 0.2846(11) 0.3430(8)
N5 N 0.4858(6) 0.3468(9) 0.4170(7)
N6 N 0.4602(5) 0.3615(10) 0.3162(7)
N7 N 0.5726(5) 0.5026(10) 0.3595(7)
N8 N 0.5994(5) 0.4873(10) 0.4627(7)
N9 N 0.6606(5) 0.5809(10) 0.4368(8)
N10 N 0.6356(5) 0.6470(10) 0.1426(7)
N11 N 0.7311(5) 0.6903(10) 0.2565(7)
N12 N 0.7013(5) 0.6540(10) 0.3038(7)
C1 C 0.3562(8) 0.1376(14) 0.7036(10)
H1 H 0.3107 0.1336 0.6805
H2 H 0.3761 0.1752 0.7624
H3 H 0.3750 0.0786 0.7200
C2 C 0.3671(8) 0.1773(12) 0.6228(9)
C3 C 0.4095(6) 0.2327(13) 0.5449(9)
C4 C 0.4578(9) 0.279(2) 0.5304(10)
H4 H 0.4962 0.2422 0.5582
H5 H 0.4688 0.3341 0.5701
C5 C 0.4425(7) 0.3040(13) 0.4287(10)
C6 C 0.4051(7) 0.3243(14) 0.2776(9)
C7 C 0.3604(9) 0.3227(19) 0.1682(11)
H6 H 0.3206 0.3514 0.1541
H7 H 0.3521 0.2614 0.1453
H8 H 0.3796 0.3541 0.1339
C8 C 0.6923(7) 0.5412(14) 0.6131(9)
H9 H 0.6710 0.5140 0.6465
H10 H 0.7009 0.6034 0.6322
H11 H 0.7323 0.5105 0.6320
C9 C 0.6505(6) 0.5348(11) 0.5036(8)
C10 C 0.6098(7) 0.5566(12) 0.3486(8)
C11 C 0.5948(7) 0.5906(13) 0.2480(9)
H12 H 0.5766 0.5410 0.2009
H13 H 0.5611 0.6355 0.2286
C12 C 0.6447(6) 0.6288(11) 0.2340(8)
C13 C 0.6896(8) 0.6857(14) 0.1593(9)
C14 C 0.7028(8) 0.7158(18) 0.0807(10)
H14 H 0.7196 0.6666 0.0594
H15 H 0.7340 0.7636 0.1058
H16 H 0.6636 0.7372 0.0246
Cu2A Cu 0.76426(8) 0.14314(16) 0.04530(11)
Cu3A Cu 0.68458(9) 0.23144(18) 0.17189(12)
Cu4A Cu 0.43208(8) 0.38922(14) -0.01369(10)
N1A N 0.5779(5) 0.2074(10) -0.1359(7)
N2A N 0.6783(6) 0.1814(10) -0.0269(7)
N3A N 0.6498(5) 0.2172(10) 0.0211(7)
N4A N 0.6086(6) 0.2846(11) 0.1570(8)
N5A N 0.5142(6) 0.3468(9) 0.0830(7)
N6A N 0.5398(5) 0.3615(10) 0.1838(7)
N7A N 0.4274(5) 0.5026(10) 0.1405(7)
N8A N 0.4006(5) 0.4873(10) 0.0373(7)
N9A N 0.3394(5) 0.5809(10) 0.0632(8)
N10A N 0.3644(5) 0.6470(10) 0.3574(7)
N11A N 0.2689(5) 0.6903(10) 0.2435(7)
N12A N 0.2987(5) 0.6540(10) 0.1962(7)
C1A C 0.6438(8) 0.1376(14) -0.2036(10)
H1A H 0.6893 0.1336 -0.1805
H2A H 0.6239 0.1752 -0.2624
H3A H 0.6250 0.0786 -0.2200
C2A C 0.6329(8) 0.1773(12) -0.1228(9)
C3A C 0.5905(6) 0.2327(13) -0.0449(9)
C4A C 0.5422(9) 0.279(2) -0.0304(10)
H4A H 0.5038 0.2422 -0.0582
H5A H 0.5312 0.3341 -0.0701
C5A C 0.5575(7) 0.3040(13) 0.0713(10)
C6A C 0.5949(7) 0.3243(14) 0.2224(9)
C7A C 0.6396(9) 0.3227(19) 0.3318(11)
H6A H 0.6794 0.3514 0.3459
H7A H 0.6479 0.2614 0.3547
H8A H 0.6204 0.3541 0.3661
C8A C 0.3077(7) 0.5412(14) -0.1131(9)
H9A H 0.3290 0.5140 -0.1465
H10A H 0.2991 0.6034 -0.1322
H11A H 0.2677 0.5105 -0.1320
C9A C 0.3495(6) 0.5348(11) -0.0036(8)
C10A C 0.3902(7) 0.5566(12) 0.1514(8)
C11A C 0.4052(7) 0.5906(13) 0.2520(9)
H12A H 0.4234 0.5410 0.2991
H13A H 0.4389 0.6355 0.2714
C12A C 0.3553(6) 0.6288(11) 0.2660(8)
C13A C 0.3104(8) 0.6857(14) 0.3407(9)
C14A C 0.2972(8) 0.7158(18) 0.4193(10)
H14A H 0.2804 0.6666 0.4406
H15A H 0.2660 0.7636 0.3942
H16A H 0.3364 0.7372 0.4754
Cu1_2 Cu 0.5000 0.2077(2) -0.2500
Cu2B Cu 0.73574(8) 0.64314(16) 0.45470(11)
Cu2C Cu 0.26426(8) 0.64314(16) 0.04530(11)
Cu3B Cu 0.81542(9) 0.73144(18) 0.32811(12)
Cu3C Cu 0.18458(9) 0.73144(18) 0.17189(12)
Cu4D Cu 0.43208(8) 0.61078(14) 0.48631(10)
Cu4E Cu 0.56792(8) 0.61078(14) 0.01369(10)
N1A_2 N 0.5779(5) 0.2074(10) 0.8641(7)
N9B N 0.1606(5) 0.0809(10) 0.4368(8)
N9C N 0.8394(5) 0.0809(10) 0.0632(8)
N10D N 0.3644(5) 0.3530(10) -0.1426(7)
N10E N 0.6356(5) 0.3530(10) 0.6426(7)
N11B N 0.2311(5) 0.1903(10) 0.2565(7)
N11C N 0.7689(5) 0.1903(10) 0.2435(7)
N12B N 0.2013(5) 0.1540(10) 0.3038(7)
N12C N 0.7987(5) 0.1540(10) 0.1962(7)
C15 C 0.453(2) 0.112(4) 0.080(5)
H17 H 0.4936 0.1332 0.0926
C16 C 0.417(3) 0.063(4) -0.004(4)
H18 H 0.4322 0.0491 -0.0487
C17 C 0.357(2) 0.032(3) -0.023(3)
H19 H 0.3325 -0.0019 -0.0808
C18 C 0.3348(18) 0.052(3) 0.041(3)
H20 H 0.2944 0.0310 0.0284
C19 C 0.371(2) 0.102(3) 0.125(3)
H21 H 0.3558 0.1151 0.1698
C20 C 0.431(2) 0.132(3) 0.144(3)
H22 H 0.4555 0.1662 0.2019
loop_
_geom_bond_atom_site_label_1
_geom_bond_atom_site_label_2
_geom_bond_site_symmetry_1
_geom_bond_site_symmetry_2
Cu1 N1 1_555 1_555
Cu2 N2 1_555 1_555
Cu3 N3 1_555 1_555
Cu4 N5 1_555 1_555
Cu5 N6 1_555 1_555
N1 C2 1_555 1_555
N2 N3 1_555 1_555
N3 C3 1_555 1_555
N4 Cu3 1_555 1_555
N5 N6 1_555 1_555
N6 C6 1_555 1_555
N7 Cu5 1_555 1_555
N8 Cu4 1_555 1_555
N9 C9 1_555 1_555
N10 C12 1_555 1_555
N11 N12 1_555 1_555
N12 C12 1_555 1_555
C1 H1 1_555 1_555
H2 C1 1_555 1_555
H3 C1 1_555 1_555
C2 N2 1_555 1_555
C3 N1 1_555 1_555
C4 C3 1_555 1_555
H4 C4 1_555 1_555
H5 C4 1_555 1_555
C5 N4 1_555 1_555
C6 N4 1_555 1_555
C7 C6 1_555 1_555
H6 C7 1_555 1_555
H7 C7 1_555 1_555
H8 C7 1_555 1_555
C8 H9 1_555 1_555
H10 C8 1_555 1_555
H11 C8 1_555 1_555
C9 N8 1_555 1_555
C10 N7 1_555 1_555
C11 C10 1_555 1_555
H12 C11 1_555 1_555
H13 C11 1_555 1_555
C12 C11 1_555 1_555
C13 N10 1_555 1_555
C14 C13 1_555 1_555
H14 C14 1_555 1_555
H15 C14 1_555 1_555
H16 C14 1_555 1_555
C15 H17 1_555 1_555
C16 C15 1_555 1_555
H18 C16 1_555 1_555
C17 C16 1_555 1_555
H19 C17 1_555 1_555
C18 C17 1_555 1_555
H20 C18 1_555 1_555
C19 C18 1_555 1_555
H21 C19 1_555 1_555
C20 C15 1_555 1_555
H22 C20 1_555 1_555
Cu2A N2A 1_555 1_555
Cu3A N3A 1_555 1_555
Cu4A N5A 1_555 1_555
N1A C2A 1_555 1_555
N2A N3A 1_555 1_555
N3A C3A 1_555 1_555
N4A Cu3A 1_555 1_555
N5A N6A 1_555 1_555
N6A Cu5 1_555 1_555
N7A Cu5 1_555 1_555
N8A Cu4A 1_555 1_555
N9A C9A 1_555 1_555
N10A C12A 1_555 1_555
N11A N12A 1_555 1_555
N12A C12A 1_555 1_555
C1A H1A 1_555 1_555
H2A C1A 1_555 1_555
H3A C1A 1_555 1_555
C2A N2A 1_555 1_555
C3A N1A 1_555 1_555
C4A C3A 1_555 1_555
H4A C4A 1_555 1_555
H5A C4A 1_555 1_555
C5A N4A 1_555 1_555
C6A N4A 1_555 1_555
C7A C6A 1_555 1_555
H6A C7A 1_555 1_555
H7A C7A 1_555 1_555
H8A C7A 1_555 1_555
C8A H9A 1_555 1_555
H10A C8A 1_555 1_555
H11A C8A 1_555 1_555
C9A N8A 1_555 1_555
C10A N7A 1_555 1_555
C11A C10A 1_555 1_555
H12A C11A 1_555 1_555
H13A C11A 1_555 1_555
C12A C11A 1_555 1_555
C13A N10A 1_555 1_555
C14A C13A 1_555 1_555
H14A C14A 1_555 1_555
H15A C14A 1_555 1_555
H16A C14A 1_555 1_555
Cu1_2 N1A 1_555 1_555
Cu2B N9 1_555 1_555
Cu2C N9A 1_555 1_555
Cu3B N11 1_555 1_555
Cu3C N11A 1_555 1_555
Cu4D N10A 1_555 1_555
Cu4E N10 1_555 1_555
N1A_2 Cu1 1_555 1_555
N9B Cu2 1_555 1_555
N9C Cu2A 1_555 1_555
N10D Cu4A 1_555 1_555
N10E Cu4 1_555 1_555
N11B Cu3 1_555 1_555
N11C Cu3A 1_555 1_555
N12B Cu2 1_555 1_555
N12C Cu2A 1_555 1_555
N5 C5 1_555 1_555
N7 N8 1_555 1_555
N9 C10 1_555 1_555
N11 C13 1_555 1_555
N12 Cu2B 1_555 1_555
C1 C2 1_555 1_555
C4 C5 1_555 1_555
C8 C9 1_555 1_555
C19 C20 1_555 1_555
N5A C5A 1_555 1_555
N6A C6A 1_555 1_555
N7A N8A 1_555 1_555
N9A C10A 1_555 1_555
N11A C13A 1_555 1_555
N12A Cu2C 1_555 1_555
C1A C2A 1_555 1_555
C4A C5A 1_555 1_555
C8A C9A 1_555 1_555
N11B N12B 1_555 1_555
N11C N12C 1_555 1_555

#END
