
#######################################################################
#
#                 Cambridge Crystallographic Data Centre
#                                CCDC 
#
#######################################################################
#
# If this CIF has been generated from an entry in the Cambridge 
# Structural Database, then it will include bibliographic, chemical, 
# crystal, experimental, refinement or atomic coordinate data resulting 
# from the CCDC's data processing and validation procedures.
#
#######################################################################

data_UVUQEJ
_chemical_formula_moiety         '(C29 H30 Br2 Cd2 N6 O13)n'
_symmetry_cell_setting           monoclinic
_symmetry_space_group_name_H-M   'P 21/c'
_symmetry_Int_Tables_number      14
_space_group_name_Hall           '-P 2ybc'
loop_
_symmetry_equiv_pos_site_id
_symmetry_equiv_pos_as_xyz
1 x,y,z
2 -x,1/2+y,1/2-z
3 -x,-y,-z
4 x,1/2-y,1/2+z
_cell_length_a                   15.466(4)
_cell_length_b                   8.0557(18)
_cell_length_c                   18.445(3)
_cell_angle_alpha                90
_cell_angle_beta                 123.605(14)
_cell_angle_gamma                90
_cell_volume                     1913.99
loop_
_atom_site_label
_atom_site_type_symbol
_atom_site_fract_x
_atom_site_fract_y
_atom_site_fract_z
Cd1 Cd 1.02572(2) 0.61005(3) 0.86584(2)
Br1 Br 0.67400(2) 0.79389(4) 0.64821(2)
C1 C 0.84483(19) 0.9687(3) 0.79027(15)
C2 C 0.8933(2) 1.0579(3) 0.86815(16)
H1 H 0.9594 1.1011 0.8912
C3 C 0.8448(2) 1.0833(3) 0.91163(16)
C4 C 0.7470(2) 1.0139(4) 0.87756(18)
H2 H 0.7147 1.0270 0.9073
C5 C 0.6977(2) 0.9264(4) 0.8009(2)
H3 H 0.6322 0.8814 0.7786
C6 C 0.7464(2) 0.9058(4) 0.75713(17)
C7 C 0.9007(2) 0.9489(4) 0.74405(16)
C8 C 0.8946(2) 1.1887(4) 0.99237(17)
C9 C 0.8195(2) 0.3997(4) 0.7289(2)
H4 H 0.8464 0.3722 0.6961
C10 C 0.7988(2) 0.4953(5) 0.82337(19)
H5 H 0.8118 0.5508 0.8727
C11 C 0.6440(3) 0.2646(4) 0.6321(2)
H6 H 0.6073 0.1924 0.6484
H7 H 0.6752 0.1960 0.6092
C12 C 0.5680(2) 0.3853(4) 0.5623(2)
C13 C 0.4799(3) 0.4357(5) 0.5575(2)
H8 H 0.4649 0.3921 0.5960
C14 C 0.5865(3) 0.4494(5) 0.5041(2)
H9 H 0.6449 0.4152 0.5056
N1 N 0.86837(18) 0.4888(3) 0.80141(15)
N2 N 0.7109(2) 0.4174(4) 0.76988(17)
N3 N 0.7266(2) 0.3557(3) 0.70996(17)
O1 O 0.96242(17) 0.8327(3) 0.76364(13)
O2 O 0.87939(15) 1.0579(3) 0.68769(12)
O3 O 0.97628(15) 1.2679(3) 1.01651(11)
O4 O 0.85284(16) 1.1939(3) 1.03538(12)
O5 O 1.10123(17) 0.3898(3) 0.96425(14)
H10 H 1.0657 0.3698 0.9856
H11 H 1.1022 0.3041 0.9378
C9B C 0.1805(2) 0.6003(4) 0.2711(2)
H4B H 0.1536 0.6278 0.3039
C10B C 0.2012(2) 0.5047(5) 0.17663(19)
H5B H 0.1882 0.4492 0.1273
C11B C 0.3560(3) 0.7354(4) 0.3679(2)
H6B H 0.3927 0.8076 0.3516
H7B H 0.3248 0.8040 0.3908
C12B C 0.4320(2) 0.6147(4) 0.4377(2)
C13B C 0.5201(3) 0.5643(5) 0.4425(2)
H8B H 0.5351 0.6079 0.4040
C14B C 0.4135(3) 0.5506(5) 0.4959(2)
H9B H 0.3551 0.5848 0.4944
N1B N 0.13163(18) 0.5112(3) 0.19859(15)
N2B N 0.2891(2) 0.5826(4) 0.23012(17)
N3B N 0.2734(2) 0.6443(3) 0.29004(17)
Cd1B Cd -0.02572(2) 0.38995(3) 0.13416(2)
Br1B Br 0.32600(2) 0.20611(4) 0.35179(2)
C1B C 0.15517(19) 0.0313(3) 0.20973(15)
C2B C 0.1067(2) -0.0579(3) 0.13185(16)
H1B H 0.0406 -0.1011 0.1088
C3B C 0.1552(2) -0.0833(3) 0.08837(16)
C4B C 0.2530(2) -0.0139(4) 0.12244(18)
H2B H 0.2853 -0.0270 0.0927
C5B C 0.3023(2) 0.0736(4) 0.1991(2)
H3B H 0.3678 0.1186 0.2214
C6B C 0.2536(2) 0.0942(4) 0.24287(17)
C7B C 0.0993(2) 0.0511(4) 0.25595(16)
C8B C 0.1054(2) -0.1887(4) 0.00763(17)
O1B O 0.03758(17) 0.1673(3) 0.23636(13)
O2B O 0.12061(15) -0.0579(3) 0.31231(12)
O3B O 0.02372(15) -0.2679(3) -0.01651(11)
O4B O 0.14716(16) -0.1939(3) -0.03538(12)
O5B O -0.10123(17) 0.6102(3) 0.03575(14)
H10B H -0.0657 0.6302 0.0144
H11B H -0.1022 0.6959 0.0622
Cd1_2 Cd 0.02572(2) -0.38995(3) -0.13416(2)
Cd1A Cd 0.97428(2) 1.11005(3) 0.63416(2)
Cd1B_2 Cd 0.97428(2) 1.38995(3) 1.13416(2)
Cd1C Cd 0.02572(2) -0.11005(3) 0.36584(2)
O2A O 1.12061(15) 0.5579(3) 0.81231(12)
O2C O -0.12061(15) 0.4421(3) 0.18769(12)
O3_2 O -0.02372(15) 0.2679(3) 0.01651(11)
O3B_2 O 1.02372(15) 0.7321(3) 0.98349(11)
O4_2 O -0.14716(16) 0.1939(3) 0.03538(12)
O4B_2 O 1.14716(16) 0.8061(3) 0.96462(12)
C15 C 0.4541(8) 1.0175(12) 0.7096(9)
H12 H 0.5251 1.0423 0.7541
H13 H 0.4101 1.0530 0.7282
H14 H 0.4348 1.0745 0.6570
O6 O 0.4423(7) 0.8374(12) 0.6935(9)
H15 H 0.3832 0.8095 0.6770
O7 O 0.6911(7) 0.9568(16) 0.4653(11)
H16 H 0.7309(8) 0.8729(18) 0.481(10)
H17 H 0.6283(7) 0.926(3) 0.432(7)
O9 O 0.8426(3) 0.6358(5) 0.5900(2)
H20 H 0.8499 0.5601 0.5851
H21 H 0.7968 0.6447 0.5448
loop_
_geom_bond_atom_site_label_1
_geom_bond_atom_site_label_2
_geom_bond_site_symmetry_1
_geom_bond_site_symmetry_2
Cd1 N1 1_555 1_555
Br1 C6 1_555 1_555
C1 C2 1_555 1_555
C2 H1 1_555 1_555
C3 C2 1_555 1_555
C4 C3 1_555 1_555
H2 C4 1_555 1_555
C5 C4 1_555 1_555
H3 C5 1_555 1_555
C6 C1 1_555 1_555
C7 C1 1_555 1_555
C8 C3 1_555 1_555
C9 H4 1_555 1_555
C10 H5 1_555 1_555
C11 H6 1_555 1_555
H7 C11 1_555 1_555
C12 C11 1_555 1_555
C13 C12 1_555 1_555
H8 C13 1_555 1_555
C14 C12 1_555 1_555
H9 C14 1_555 1_555
N1 C9 1_555 1_555
N2 C10 1_555 1_555
N3 C9 1_555 1_555
O1 Cd1 1_555 1_555
O2 C7 1_555 1_555
O3 C8 1_555 1_555
O4 C8 1_555 1_555
O5 Cd1 1_555 1_555
H10 O5 1_555 1_555
H11 O5 1_555 1_555
C15 H12 1_555 1_555
H13 C15 1_555 1_555
H14 C15 1_555 1_555
O6 C15 1_555 1_555
H15 O6 1_555 1_555
O7 H16 1_555 1_555
H17 O7 1_555 1_555
O9 H20 1_555 1_555
H21 O9 1_555 1_555
C9B H4B 1_555 1_555
C10B H5B 1_555 1_555
C11B H6B 1_555 1_555
H7B C11B 1_555 1_555
C12B C11B 1_555 1_555
C13B C14 1_555 1_555
H8B C13B 1_555 1_555
C14B C13 1_555 1_555
H9B C14B 1_555 1_555
N1B C9B 1_555 1_555
N2B C10B 1_555 1_555
N3B C9B 1_555 1_555
Cd1B N1B 1_555 1_555
Br1B C6B 1_555 1_555
C1B C2B 1_555 1_555
C2B H1B 1_555 1_555
C3B C2B 1_555 1_555
C4B C3B 1_555 1_555
H2B C4B 1_555 1_555
C5B C4B 1_555 1_555
H3B C5B 1_555 1_555
C6B C1B 1_555 1_555
C7B C1B 1_555 1_555
C8B C3B 1_555 1_555
O1B Cd1B 1_555 1_555
O2B C7B 1_555 1_555
O3B C8B 1_555 1_555
O4B C8B 1_555 1_555
O5B Cd1B 1_555 1_555
H10B O5B 1_555 1_555
H11B O5B 1_555 1_555
Cd1_2 O3B 1_555 1_555
Cd1A O2 1_555 1_555
Cd1B_2 O3 1_555 1_555
Cd1C O2B 1_555 1_555
O2A Cd1 1_555 1_555
O2C Cd1B 1_555 1_555
O3_2 Cd1B 1_555 1_555
O3B_2 Cd1 1_555 1_555
O4_2 Cd1B 1_555 1_555
O4B_2 Cd1 1_555 1_555
C5 C6 1_555 1_555
C7 O1 1_555 1_555
C10 N1 1_555 1_555
C11 N3 1_555 1_555
N2 N3 1_555 1_555
O4 Cd1B_2 1_555 1_555
C10B N1B 1_555 1_555
C11B N3B 1_555 1_555
C12B C13B 1_555 1_555
C12B C14B 1_555 1_555
N2B N3B 1_555 1_555
C5B C6B 1_555 1_555
C7B O1B 1_555 1_555
O4B Cd1_2 1_555 1_555

#END
