
#######################################################################
#
#                 Cambridge Crystallographic Data Centre
#                                CCDC 
#
#######################################################################
#
# If this CIF has been generated from an entry in the Cambridge 
# Structural Database, then it will include bibliographic, chemical, 
# crystal, experimental, refinement or atomic coordinate data resulting 
# from the CCDC's data processing and validation procedures.
#
#######################################################################

data_AZIVAI
_chemical_formula_moiety         '(C42 H28 Cl6 Cu2 N8 O1)n'
_symmetry_cell_setting           tetragonal
_symmetry_space_group_name_H-M   'P 42 21 2'
_symmetry_Int_Tables_number      94
_space_group_name_Hall           'P 4n 2n'
loop_
_symmetry_equiv_pos_site_id
_symmetry_equiv_pos_as_xyz
1 x,y,z
2 -x,-y,z
3 1/2-y,1/2+x,1/2+z
4 1/2+y,1/2-x,1/2+z
5 1/2-x,1/2+y,1/2-z
6 1/2+x,1/2-y,1/2-z
7 y,x,-z
8 -y,-x,-z
_cell_length_a                   13.636(3)
_cell_length_b                   13.636(3)
_cell_length_c                   19.467(4)
_cell_angle_alpha                90
_cell_angle_beta                 90
_cell_angle_gamma                90
_cell_volume                     3619.7
loop_
_atom_site_label
_atom_site_type_symbol
_atom_site_fract_x
_atom_site_fract_y
_atom_site_fract_z
Cu1 Cu 0.5000 0.5000 0.0000
Cu2 Cu 0.0000 0.0000 0.0000
Cl1 Cl 0.14289(16) -0.14289(16) 0.0000
N1 N 0.4321(6) 0.4230(6) 0.0731(3)
N2 N 0.1045(6) 0.1045(6) 0.0000
N3 N 0.5000 0.5000 0.3960(5)
C1 C 0.4490(7) 0.4259(7) 0.1425(5)
C2 C 0.4004(8) 0.3441(7) 0.1755(5)
H1 H 0.4031 0.3270 0.2228
C3 C 0.3505(7) 0.2968(7) 0.1253(5)
H2 H 0.3096 0.2411 0.1313
C4 C 0.3700(7) 0.3455(6) 0.0619(5)
C5 C 0.3246(6) 0.3246(6) 0.0000
C6 C 0.2472(6) 0.2472(6) 0.0000
C7 C 0.1608(7) 0.2590(7) 0.0368(5)
H3 H 0.1495 0.3170 0.0626
C8 C 0.0931(7) 0.1869(7) 0.0352(5)
H4 H 0.0343 0.1956 0.0607
C9 C 0.5000 0.5000 0.1755(6)
C10 C 0.5000 0.5000 0.2521(6)
C11 C 0.5876(7) 0.5010(7) 0.2892(4)
H5 H 0.6488 0.5008 0.2659
C12 C 0.5846(6) 0.5023(7) 0.3597(4)
H6 H 0.6449 0.5049 0.3842
N1A N 0.5679(6) 0.5770(6) 0.0731(3)
N2A N 0.8955(6) 0.8955(6) 0.0000
C1A C 0.5510(7) 0.5741(7) 0.1425(5)
C2A C 0.5996(8) 0.6559(7) 0.1755(5)
H1A H 0.5969 0.6730 0.2228
C3A C 0.6495(7) 0.7032(7) 0.1253(5)
H2A H 0.6904 0.7589 0.1313
C4A C 0.6300(7) 0.6545(6) 0.0619(5)
C5A C 0.6754(6) 0.6754(6) 0.0000
C6A C 0.7528(6) 0.7528(6) 0.0000
C7A C 0.8392(7) 0.7410(7) 0.0368(5)
H3A H 0.8505 0.6830 0.0626
C8A C 0.9069(7) 0.8131(7) 0.0352(5)
H4A H 0.9657 0.8044 0.0607
C11A C 0.4124(7) 0.4990(7) 0.2892(4)
H5A H 0.3512 0.4992 0.2659
C12A C 0.4154(6) 0.4977(7) 0.3597(4)
H6A H 0.3551 0.4951 0.3842
N1F N 0.4230(6) 0.4321(6) -0.0731(3)
N3F N 0.5000 0.5000 -0.3960(5)
C1F C 0.4259(7) 0.4490(7) -0.1425(5)
C2F C 0.3441(7) 0.4004(8) -0.1755(5)
H1F H 0.3270 0.4031 -0.2228
C3F C 0.2968(7) 0.3505(7) -0.1253(5)
H2F H 0.2411 0.3096 -0.1313
C4F C 0.3455(6) 0.3700(7) -0.0619(5)
C7F C 0.2590(7) 0.1608(7) -0.0368(5)
H3F H 0.3170 0.1495 -0.0626
C8F C 0.1869(7) 0.0931(7) -0.0352(5)
H4F H 0.1956 0.0343 -0.0607
C9F C 0.5000 0.5000 -0.1755(6)
C10F C 0.5000 0.5000 -0.2521(6)
C11F C 0.5010(7) 0.5876(7) -0.2892(4)
H5F H 0.5008 0.6488 -0.2659
C12F C 0.5023(7) 0.5846(6) -0.3597(4)
H6F H 0.5049 0.6449 -0.3842
N1G N 0.5770(6) 0.5679(6) -0.0731(3)
C1G C 0.5741(7) 0.5510(7) -0.1425(5)
C2G C 0.6559(7) 0.5996(8) -0.1755(5)
H1G H 0.6730 0.5969 -0.2228
C3G C 0.7032(7) 0.6495(7) -0.1253(5)
H2G H 0.7589 0.6904 -0.1313
C4G C 0.6545(6) 0.6300(7) -0.0619(5)
C7G C 0.7410(7) 0.8392(7) -0.0368(5)
H3G H 0.6830 0.8505 -0.0626
C8G C 0.8131(7) 0.9069(7) -0.0352(5)
H4G H 0.8044 0.9657 -0.0607
C11G C 0.4990(7) 0.4124(7) -0.2892(4)
H5G H 0.4992 0.3512 -0.2659
C12G C 0.4977(7) 0.4154(6) -0.3597(4)
H6G H 0.4951 0.3551 -0.3842
Cl1A Cl -0.14289(16) 0.14289(16) 0.0000
Cu2_2 Cu 1.0000 1.0000 0.0000
Cu2B Cu 0.5000 0.5000 -0.5000
Cu2B_2 Cu 0.5000 0.5000 0.5000
N2A_2 N -0.1045(6) -0.1045(6) 0.0000
N3B N -0.0000 -0.0000 -0.1040(5)
N3D N 0.0000 0.0000 0.1040(5)
C13 C 0.3140(12) 0.1662(12) 0.3913(8)
H7 H 0.3290 0.1809 0.4405
C14 C 0.2352(13) 0.2370(13) 0.3686(8)
H8 H 0.2610 0.3048 0.3761
Cl2 Cl 0.4224(6) 0.1913(6) 0.3428(4)
Cl3 Cl 0.2725(10) 0.0459(8) 0.3874(7)
Cl4 Cl 0.2057(5) 0.2265(5) 0.2816(3)
Cl5 Cl 0.1304(3) 0.2235(4) 0.4205(2)
O1 O 0.575(3) -0.002(3) 0.035(2)
loop_
_geom_bond_atom_site_label_1
_geom_bond_atom_site_label_2
_geom_bond_site_symmetry_1
_geom_bond_site_symmetry_2
Cu1 N1 1_555 1_555
Cu2 Cl1 1_555 1_555
N1 C1 1_555 1_555
N2 Cu2 1_555 1_555
N3 C12 1_555 1_555
C1 C2 1_555 1_555
C2 H1 1_555 1_555
C3 C2 1_555 1_555
H2 C3 1_555 1_555
C4 N1 1_555 1_555
C5 C4 1_555 1_555
C6 C5 1_555 1_555
C7 C6 1_555 1_555
H3 C7 1_555 1_555
C8 N2 1_555 1_555
H4 C8 1_555 1_555
C9 C1 1_555 1_555
C10 C9 1_555 1_555
C11 C10 1_555 1_555
H5 C11 1_555 1_555
C12 C11 1_555 1_555
H6 C12 1_555 1_555
C13 H7 1_555 1_555
C14 C13 1_555 1_555
H8 C14 1_555 1_555
Cl2 C13 1_555 1_555
Cl3 C13 1_555 1_555
Cl4 C14 1_555 1_555
Cl5 C14 1_555 1_555
N1A Cu1 1_555 1_555
N2A C8A 1_555 1_555
C1A C9 1_555 1_555
C2A C1A 1_555 1_555
H1A C2A 1_555 1_555
C3A C2A 1_555 1_555
H2A C3A 1_555 1_555
C4A N1A 1_555 1_555
C5A C4A 1_555 1_555
C6A C5A 1_555 1_555
C7A C6A 1_555 1_555
H3A C7A 1_555 1_555
C8A C7A 1_555 1_555
H4A C8A 1_555 1_555
C11A C10 1_555 1_555
H5A C11A 1_555 1_555
C12A N3 1_555 1_555
H6A C12A 1_555 1_555
N1F Cu1 1_555 1_555
N3F C12F 1_555 1_555
C1F N1F 1_555 1_555
C2F C1F 1_555 1_555
H1F C2F 1_555 1_555
C3F C2F 1_555 1_555
H2F C3F 1_555 1_555
C4F C5 1_555 1_555
C7F C6 1_555 1_555
H3F C7F 1_555 1_555
C8F N2 1_555 1_555
H4F C8F 1_555 1_555
C9F C1F 1_555 1_555
C10F C9F 1_555 1_555
C11F C10F 1_555 1_555
H5F C11F 1_555 1_555
C12F C11F 1_555 1_555
H6F C12F 1_555 1_555
N1G Cu1 1_555 1_555
C1G C9F 1_555 1_555
C2G C1G 1_555 1_555
H1G C2G 1_555 1_555
C3G C2G 1_555 1_555
H2G C3G 1_555 1_555
C4G C5A 1_555 1_555
C7G C6A 1_555 1_555
H3G C7G 1_555 1_555
C8G N2A 1_555 1_555
H4G C8G 1_555 1_555
C11G C10F 1_555 1_555
H5G C11G 1_555 1_555
C12G N3F 1_555 1_555
H6G C12G 1_555 1_555
Cl1A Cu2 1_555 1_555
Cu2_2 N2A 1_555 1_555
Cu2B N3F 1_555 1_555
Cu2B_2 N3 1_555 1_555
N2A_2 Cu2 1_555 1_555
N3B Cu2 1_555 1_555
N3D Cu2 1_555 1_555
C3 C4 1_555 1_555
C7 C8 1_555 1_555
N1A C1A 1_555 1_555
C3A C4A 1_555 1_555
C11A C12A 1_555 1_555
N1F C4F 1_555 1_555
C3F C4F 1_555 1_555
C7F C8F 1_555 1_555
N1G C1G 1_555 1_555
N1G C4G 1_555 1_555
C3G C4G 1_555 1_555
C7G C8G 1_555 1_555
C11G C12G 1_555 1_555

#END
