
#######################################################################
#
#                 Cambridge Crystallographic Data Centre
#                                CCDC 
#
#######################################################################
#
# If this CIF has been generated from an entry in the Cambridge 
# Structural Database, then it will include bibliographic, chemical, 
# crystal, experimental, refinement or atomic coordinate data resulting 
# from the CCDC's data processing and validation procedures.
#
#######################################################################

data_HADMIL
_chemical_formula_moiety         '(C14 H12 Co1 N4)n'
_symmetry_cell_setting           monoclinic
_symmetry_space_group_name_H-M   'C 2/c'
_symmetry_Int_Tables_number      15
_space_group_name_Hall           '-C 2yc'
loop_
_symmetry_equiv_pos_site_id
_symmetry_equiv_pos_as_xyz
1 x,y,z
2 -x,y,1/2-z
3 1/2-x,1/2+y,1/2-z
4 1/2+x,1/2+y,z
5 -x,-y,-z
6 x,-y,1/2+z
7 1/2+x,1/2-y,1/2+z
8 1/2-x,1/2-y,-z
_cell_length_a                   24.6401(30)
_cell_length_b                   8.69621(90)
_cell_length_c                   7.12945(63)
_cell_angle_alpha                90
_cell_angle_beta                 90.081(13)
_cell_angle_gamma                90
_cell_volume                     1527.66
loop_
_atom_site_label
_atom_site_type_symbol
_atom_site_fract_x
_atom_site_fract_y
_atom_site_fract_z
_atom_site_U_iso_or_equiv
_atom_site_thermal_displace_type
Co1 Co 0.500 0.03517(71) 0.250 0.0002 Uiso
C1 C 0.4050(4) 0.203(1) 0.393(3) 0.0002 Uiso
C2 C 0.3892(4) 0.117(1) 0.678(3) 0.0002 Uiso
C3 C 0.3658(4) 0.183(1) 0.525(3) 0.0002 Uiso
C4 C 0.3072(4) 0.226(1) 0.505(3) 0.0002 Uiso
C5 C 0.2807(4) 0.303(1) 0.652(3) 0.0002 Uiso
C6 C 0.3127(4) 0.363(1) 0.815(3) 0.0002 Uiso
C7 C 0.2245(4) 0.325(1) 0.645(3) 0.0002 Uiso
N1 N 0.4525(4) 0.149(1) 0.464(3) 0.0002 Uiso
N2 N 0.4428(4) 0.096(1) 0.640(3) 0.0002 Uiso
H1 H 0.399288 0.253488 0.254591 0.0002 Uiso
H2 H 0.368676 0.086379 0.807919 0.0002 Uiso
H3 H 0.34253 0.445895 0.765351 0.0002 Uiso
H4 H 0.285428 0.418747 0.913983 0.0002 Uiso
H5 H 0.333416 0.267998 0.884219 0.0002 Uiso
H6 H 0.204737 0.384138 0.760934 0.0002 Uiso
C1G C 0.0950(4) 0.297(1) 0.607(3) 0.0002 Uiso
C2G C 0.1108(4) 0.383(1) 0.322(3) 0.0002 Uiso
C3G C 0.1342(4) 0.317(1) 0.475(3) 0.0002 Uiso
C4G C 0.1928(4) 0.274(1) 0.495(3) 0.0002 Uiso
C5G C 0.2193(4) 0.197(1) 0.348(3) 0.0002 Uiso
C6G C 0.1873(4) 0.137(1) 0.185(3) 0.0002 Uiso
C7G C 0.2755(4) 0.175(1) 0.355(3) 0.0002 Uiso
N1G N 0.0475(4) 0.351(1) 0.536(3) 0.0002 Uiso
N2G N 0.0572(4) 0.404(1) 0.360(3) 0.0002 Uiso
H1G H 0.100712 0.246512 0.745409 0.0002 Uiso
H2G H 0.131324 0.413621 0.192081 0.0002 Uiso
H3G H 0.15747 0.054105 0.234649 0.0002 Uiso
H4G H 0.214572 0.081253 0.086017 0.0002 Uiso
H5G H 0.166584 0.232002 0.115781 0.0002 Uiso
H6G H 0.295263 0.115862 0.239066 0.0002 Uiso
Co1D Co 0.500 -0.03517(71) 0.750 0.0002 Uiso
Co1G Co 0.000 0.46483(71) 0.750 0.0002 Uiso
Co1B Co 0.000 0.53517(71) 0.250 0.0002 Uiso
N1A N 0.5475(4) 0.149(1) 0.036(3) 0.0002 Uiso
N2D N 0.5572(4) -0.096(1) 0.360(3) 0.0002 Uiso
N2E N 0.4428(4) -0.096(1) 0.140(3) 0.0002 Uiso
loop_
_geom_bond_atom_site_label_1
_geom_bond_atom_site_label_2
_geom_bond_site_symmetry_1
_geom_bond_site_symmetry_2
Co1 N1 1_555 1_555
C1 C3 1_555 1_555
C2 C3 1_555 1_555
C3 C4 1_555 1_555
C4 C5 1_555 1_555
C5 C6 1_555 1_555
C6 H3 1_555 1_555
C7 C5 1_555 1_555
N1 C1 1_555 1_555
N2 C2 1_555 1_555
H1 C1 1_555 1_555
H2 C2 1_555 1_555
H4 C6 1_555 1_555
H5 C6 1_555 1_555
H6 C7 1_555 1_555
C1G C3G 1_555 1_555
C2G C3G 1_555 1_555
C3G C4G 1_555 1_555
C4G C7 1_555 1_555
C5G C4G 1_555 1_555
C6G C5G 1_555 1_555
C7G C4 1_555 1_555
N1G C1G 1_555 1_555
N2G C2G 1_555 1_555
H1G C1G 1_555 1_555
H2G C2G 1_555 1_555
H3G C6G 1_555 1_555
H4G C6G 1_555 1_555
H5G C6G 1_555 1_555
H6G C7G 1_555 1_555
Co1D N2 1_555 1_555
Co1G N1G 1_555 1_555
Co1B N2G 1_555 1_555
N1A Co1 1_555 1_555
N2D Co1 1_555 1_555
N2E Co1 1_555 1_555
N1 N2 1_555 1_555
C5G C7G 1_555 1_555
N1G N2G 1_555 1_555

#END
