
#######################################################################
#
#                 Cambridge Crystallographic Data Centre
#                                CCDC 
#
#######################################################################
#
# If this CIF has been generated from an entry in the Cambridge 
# Structural Database, then it will include bibliographic, chemical, 
# crystal, experimental, refinement or atomic coordinate data resulting 
# from the CCDC's data processing and validation procedures.
#
#######################################################################

data_DUBKAO
_chemical_formula_moiety         '(C34 H30 N6 Ni2 O13)n'
_symmetry_cell_setting           monoclinic
_symmetry_space_group_name_H-M   'C 2/m'
_symmetry_Int_Tables_number      12
_space_group_name_Hall           '-C 2y'
loop_
_symmetry_equiv_pos_site_id
_symmetry_equiv_pos_as_xyz
1 x,y,z
2 -x,y,-z
3 1/2+x,1/2+y,z
4 1/2-x,1/2+y,-z
5 -x,-y,-z
6 x,-y,z
7 1/2-x,1/2-y,-z
8 1/2+x,1/2-y,z
_cell_length_a                   19.6700(18)
_cell_length_b                   22.239(2)
_cell_length_c                   11.6392(11)
_cell_angle_alpha                90
_cell_angle_beta                 116.7460(10)
_cell_angle_gamma                90
_cell_volume                     4546.73
loop_
_atom_site_label
_atom_site_type_symbol
_atom_site_fract_x
_atom_site_fract_y
_atom_site_fract_z
Ni1 Ni 0.18936(3) 0.12040(3) 0.38787(6)
N1 N 0.2188(2) 0.1383(2) 0.5756(4)
N2 N 0.3596(3) 0.2094(2) 1.0303(4)
N3 N 0.5981(2) 0.3212(2) 1.3153(4)
O1 O 0.2680(2) 0.17687(17) 1.3636(3)
O2 O 0.1904(2) 0.11990(16) 1.2036(4)
O3 O 0.26734(19) 0.05006(17) 0.4407(4)
O4 O 0.11638(19) 0.05010(16) 0.3645(4)
C1 C 0.1740(3) 0.1282(3) 0.6326(5)
H1 H 0.1260 0.1119 0.5834
C2 C 0.1954(3) 0.1406(3) 0.7599(5)
H2 H 0.1619 0.1329 0.7945
C3 C 0.2674(3) 0.1646(2) 0.8375(5)
C4 C 0.3133(3) 0.1756(3) 0.7784(5)
H3 H 0.3615 0.1922 0.8250
C5 C 0.2874(3) 0.1619(3) 0.6497(5)
H4 H 0.3196 0.1694 0.6123
C6 C 0.2949(3) 0.1788(2) 0.9755(5)
C7 C 0.2563(3) 0.1601(3) 1.0452(5)
H5 H 0.2112 0.1384 1.0050
C8 C 0.2858(3) 0.1742(2) 1.1739(5)
C9 C 0.3547(3) 0.2046(3) 1.2323(5)
H6 H 0.3768 0.2135 1.3197
C10 C 0.3900(3) 0.2213(3) 1.1565(5)
C11 C 0.5878(3) 0.2752(3) 1.3808(5)
H7 H 0.6269 0.2651 1.4608
C12 C 0.5206(3) 0.2423(3) 1.3326(5)
H8 H 0.5146 0.2118 1.3819
C13 C 0.4629(3) 0.2546(3) 1.2124(5)
C14 C 0.4748(3) 0.3016(3) 1.1427(6)
H9 H 0.4380 0.3111 1.0602
C15 C 0.5421(3) 0.3335(3) 1.1989(5)
H10 H 0.5489 0.3653 1.1531
C16 C 0.2451(3) 0.1558(2) 1.2512(5)
C17 C 0.2359(4) 0.0000 0.4249(6)
C18 C 0.1484(4) 0.0000 0.3810(7)
O3E O 0.26734(19) -0.05006(17) 0.4407(4)
O4E O 0.11638(19) -0.05010(16) 0.3645(4)
Ni1E Ni 0.18936(3) -0.12040(3) 0.38787(6)
N1E N 0.2188(2) -0.1383(2) 0.5756(4)
N2E N 0.3596(3) -0.2094(2) 1.0303(4)
N3E N 0.5981(2) -0.3212(2) 1.3153(4)
O1E O 0.2680(2) -0.17687(17) 1.3636(3)
O2E O 0.1904(2) -0.11990(16) 1.2036(4)
C1E C 0.1740(3) -0.1282(3) 0.6326(5)
H1E H 0.1260 -0.1119 0.5834
C2E C 0.1954(3) -0.1406(3) 0.7599(5)
H2E H 0.1619 -0.1329 0.7945
C3E C 0.2674(3) -0.1646(2) 0.8375(5)
C4E C 0.3133(3) -0.1756(3) 0.7784(5)
H3E H 0.3615 -0.1922 0.8250
C5E C 0.2874(3) -0.1619(3) 0.6497(5)
H4E H 0.3196 -0.1694 0.6123
C6E C 0.2949(3) -0.1788(2) 0.9755(5)
C7E C 0.2563(3) -0.1601(3) 1.0452(5)
H5E H 0.2112 -0.1384 1.0050
C8E C 0.2858(3) -0.1742(2) 1.1739(5)
C9E C 0.3547(3) -0.2046(3) 1.2323(5)
H6E H 0.3768 -0.2135 1.3197
C10E C 0.3900(3) -0.2213(3) 1.1565(5)
C11E C 0.5878(3) -0.2752(3) 1.3808(5)
H7E H 0.6269 -0.2651 1.4608
C12E C 0.5206(3) -0.2423(3) 1.3326(5)
H8E H 0.5146 -0.2118 1.3819
C13E C 0.4629(3) -0.2546(3) 1.2124(5)
C14E C 0.4748(3) -0.3016(3) 1.1427(6)
H9E H 0.4380 -0.3111 1.0602
C15E C 0.5421(3) -0.3335(3) 1.1989(5)
H10E H 0.5489 -0.3653 1.1531
C16E C 0.2451(3) -0.1558(2) 1.2512(5)
Ni1_2 Ni 0.18936(3) 0.12040(3) 1.38787(6)
Ni1B Ni 0.68936(3) -0.37960(3) 1.38787(6)
Ni1E_2 Ni 0.18936(3) -0.12040(3) 1.38787(6)
Ni1G Ni 0.68936(3) 0.37960(3) 1.38787(6)
N3B N 0.0981(2) -0.1788(2) 0.3153(4)
N3G N 0.0981(2) 0.1788(2) 0.3153(4)
O1_2 O 0.2680(2) 0.17687(17) 0.3636(3)
O1E_2 O 0.2680(2) -0.17687(17) 0.3636(3)
O2_2 O 0.1904(2) 0.11990(16) 0.2036(4)
O2E_2 O 0.1904(2) -0.11990(16) 0.2036(4)
O5 O 0.9791(11) 0.0566(10) 0.3837(19)
O6 O 0.1573(18) -0.0000 0.101(3)
O7 O 0.443(2) 0.102(2) 0.506(4)
O8 O 0.148(2) 0.0000 0.844(4)
O9 O 0.292(3) -0.0000 0.898(5)
loop_
_geom_bond_atom_site_label_1
_geom_bond_atom_site_label_2
_geom_bond_site_symmetry_1
_geom_bond_site_symmetry_2
Ni1 N1 1_555 1_555
N1 C1 1_555 1_555
N2 C6 1_555 1_555
N3 C11 1_555 1_555
O1 C16 1_555 1_555
O2 C16 1_555 1_555
O3 Ni1 1_555 1_555
O4 Ni1 1_555 1_555
C1 H1 1_555 1_555
C2 C1 1_555 1_555
H2 C2 1_555 1_555
C3 C2 1_555 1_555
C4 C3 1_555 1_555
H3 C4 1_555 1_555
C5 N1 1_555 1_555
H4 C5 1_555 1_555
C6 C3 1_555 1_555
C7 C6 1_555 1_555
H5 C7 1_555 1_555
C8 C7 1_555 1_555
C9 C8 1_555 1_555
H6 C9 1_555 1_555
C10 N2 1_555 1_555
C11 H7 1_555 1_555
C12 C11 1_555 1_555
H8 C12 1_555 1_555
C13 C10 1_555 1_555
C14 C13 1_555 1_555
H9 C14 1_555 1_555
C15 N3 1_555 1_555
H10 C15 1_555 1_555
C16 C8 1_555 1_555
C17 O3 1_555 1_555
C18 O4 1_555 1_555
O3E C17 1_555 1_555
O4E C18 1_555 1_555
Ni1E O3E 1_555 1_555
N1E Ni1E 1_555 1_555
N2E C6E 1_555 1_555
N3E C11E 1_555 1_555
O1E C16E 1_555 1_555
O2E C16E 1_555 1_555
C1E N1E 1_555 1_555
H1E C1E 1_555 1_555
C2E C1E 1_555 1_555
H2E C2E 1_555 1_555
C3E C2E 1_555 1_555
C4E C3E 1_555 1_555
H3E C4E 1_555 1_555
C5E N1E 1_555 1_555
H4E C5E 1_555 1_555
C6E C3E 1_555 1_555
C7E C6E 1_555 1_555
H5E C7E 1_555 1_555
C8E C7E 1_555 1_555
C9E C8E 1_555 1_555
H6E C9E 1_555 1_555
C10E N2E 1_555 1_555
C11E H7E 1_555 1_555
C12E C11E 1_555 1_555
H8E C12E 1_555 1_555
C13E C10E 1_555 1_555
C14E C13E 1_555 1_555
H9E C14E 1_555 1_555
C15E N3E 1_555 1_555
H10E C15E 1_555 1_555
C16E C8E 1_555 1_555
Ni1_2 O1 1_555 1_555
Ni1B N3E 1_555 1_555
Ni1E_2 O1E 1_555 1_555
Ni1G N3 1_555 1_555
N3B Ni1E 1_555 1_555
N3G Ni1 1_555 1_555
O1_2 Ni1 1_555 1_555
O1E_2 Ni1E 1_555 1_555
O2_2 Ni1 1_555 1_555
O2E_2 Ni1E 1_555 1_555
O2 Ni1_2 1_555 1_555
C4 C5 1_555 1_555
C9 C10 1_555 1_555
C12 C13 1_555 1_555
C14 C15 1_555 1_555
C17 C18 1_555 1_555
O4E Ni1E 1_555 1_555
O2E Ni1E_2 1_555 1_555
C4E C5E 1_555 1_555
C9E C10E 1_555 1_555
C12E C13E 1_555 1_555
C14E C15E 1_555 1_555

#END
