
#######################################################################
#
#                 Cambridge Crystallographic Data Centre
#                                CCDC 
#
#######################################################################
#
# If this CIF has been generated from an entry in the Cambridge 
# Structural Database, then it will include bibliographic, chemical, 
# crystal, experimental, refinement or atomic coordinate data resulting 
# from the CCDC's data processing and validation procedures.
#
#######################################################################

data_MIPHEA
_chemical_formula_moiety         'C145 H198 Mn14 N5 O42 S12'
_symmetry_cell_setting           orthorhombic
_symmetry_space_group_name_H-M   'C 2 2 21'
_symmetry_Int_Tables_number      20
_space_group_name_Hall           'C 2c 2'
loop_
_symmetry_equiv_pos_site_id
_symmetry_equiv_pos_as_xyz
1 x,y,z
2 -x,-y,1/2+z
3 -x,y,1/2-z
4 x,-y,-z
5 1/2+x,1/2+y,z
6 1/2-x,1/2-y,1/2+z
7 1/2-x,1/2+y,1/2-z
8 1/2+x,1/2-y,-z
_cell_length_a                   18.515(2)
_cell_length_b                   57.377(5)
_cell_length_c                   48.822(5)
_cell_angle_alpha                90
_cell_angle_beta                 90
_cell_angle_gamma                90
_cell_volume                     51865.3
loop_
_atom_site_label
_atom_site_type_symbol
_atom_site_fract_x
_atom_site_fract_y
_atom_site_fract_z
N4 N 0.5125(12) 0.3054(3) 0.1819(4)
O33 O 0.5936(12) 0.2770(3) 0.1970(4)
C140 C 0.5775(13) 0.2971(3) 0.1943(5)
H185 H 0.6105 0.3084 0.2010
C141 C 0.4705(14) 0.2884(4) 0.1636(5)
H186 H 0.4285 0.2963 0.1557
H187 H 0.4541 0.2751 0.1746
H188 H 0.5019 0.2828 0.1489
C142 C 0.5139(17) 0.3315(3) 0.1751(6)
H189 H 0.4683 0.3360 0.1664
H190 H 0.5540 0.3348 0.1626
H191 H 0.5203 0.3405 0.1920
N5 N -0.3546(9) 0.3879(3) -0.1024(4)
O34 O -0.4042(16) 0.3570(5) -0.1249(6)
C143 C -0.3583(17) 0.3719(5) -0.1247(5)
H192 H -0.3246 0.3730 -0.1393
C144 C -0.2979(12) 0.4070(4) -0.0979(5)
H193 H -0.3118 0.4166 -0.0822
H194 H -0.2948 0.4168 -0.1144
H195 H -0.2508 0.3998 -0.0944
C145 C -0.4201(10) 0.3841(4) -0.0837(4)
H196 H -0.4208 0.3962 -0.0694
H197 H -0.4169 0.3687 -0.0751
H198 H -0.4646 0.3851 -0.0945
O1 O -0.5569(4) 0.41081(15) 0.07262(15)
O2 O 0.1245(5) 0.40171(15) -0.07265(17)
O3 O -0.1527(5) 0.34944(19) 0.18805(18)
O4 O -0.2904(11) 0.3318(2) -0.1592(2)
C1 C 0.075(3) 0.2824(7) 0.0441(8)
H1 H 0.1002 0.2871 0.0608
H2 H 0.0284 0.2907 0.0431
H3 H 0.1040 0.2863 0.0281
C2 C 0.143(3) 0.3412(6) 0.0177(7)
H4 H 0.1037 0.3527 0.0167
H5 H 0.1878 0.3489 0.0244
C3 C 0.156(3) 0.3288(7) -0.0105(7)
H6 H 0.1240 0.3151 -0.0127
H7 H 0.2068 0.3241 -0.0129
C4 C 0.134(3) 0.3491(11) -0.0304(8)
H8 H 0.1779 0.3557 -0.0388
H9 H 0.1092 0.3614 -0.0201
H10 H 0.1023 0.3431 -0.0447
C5 C -0.3393(6) 0.35279(11) 0.00658(14)
C6 C -0.3435(5) 0.33945(16) 0.03031(14)
C7 C -0.3582(4) 0.35317(11) 0.05240(16)
H11 H -0.3618 0.3470 0.0704
C8 C -0.3671(5) 0.37552(14) 0.04728(17)
N1 N -0.4935(7) 0.4975(2) 0.0718(2)
O5 O -0.5021(5) 0.45836(14) 0.07891(16)
C9 C -0.4668(8) 0.4758(2) 0.0820(3)
H12 H -0.4216 0.4751 0.0911
C10 C -0.5549(12) 0.4962(4) 0.0508(5)
H13 H -0.5685 0.5120 0.0452
H14 H -0.5967 0.4884 0.0590
H15 H -0.5387 0.4874 0.0347
C11 C -0.4576(10) 0.5190(2) 0.0830(4)
H16 H -0.4769 0.5328 0.0737
H17 H -0.4054 0.5181 0.0798
H18 H -0.4670 0.5202 0.1027
N2 N -0.2190(10) 0.2623(2) 0.1813(4)
O6 O -0.2033(5) 0.30163(15) 0.17371(17)
C12 C -0.2406(8) 0.2844(2) 0.1709(3)
H19 H -0.2855 0.2858 0.1616
C13 C -0.1434(12) 0.2599(4) 0.1936(6)
H20 H -0.1352 0.2436 0.1989
H21 H -0.1394 0.2699 0.2099
H22 H -0.1073 0.2646 0.1801
C14 C -0.2636(16) 0.2411(4) 0.1730(6)
H23 H -0.2415 0.2270 0.1805
H24 H -0.2652 0.2400 0.1529
H25 H -0.3129 0.2427 0.1801
N3 N 0.0591(11) 0.4886(3) -0.0786(4)
O7 O 0.0724(7) 0.44984(17) -0.0820(2)
C15 C 0.0380(8) 0.4663(3) -0.0888(3)
H26 H -0.0024 0.4647 -0.1007
C16 C 0.1223(13) 0.4912(3) -0.0587(5)
H27 H 0.1197 0.5065 -0.0498
H28 H 0.1679 0.4900 -0.0688
H29 H 0.1199 0.4789 -0.0449
C17 C 0.0215(12) 0.5099(3) -0.0910(6)
H30 H 0.0230 0.5229 -0.0779
H31 H -0.0289 0.5061 -0.0952
H32 H 0.0464 0.5145 -0.1079
O8 O -0.2294(7) 0.2840(2) -0.1621(2)
C18 C -0.0377(6) 0.39058(15) -0.05973(18)
C19 C -0.0641(5) 0.37295(13) -0.03779(17)
C20 C -0.0678(5) 0.34989(15) -0.04009(17)
H33 H -0.0600 0.3416 -0.0567
C21 C -0.0855(6) 0.33862(18) -0.0137(2)
C22 C -0.0894(4) 0.35551(13) 0.00597(13)
C23 C -0.1046(5) 0.35229(15) 0.03563(18)
C24 C -0.0683(6) 0.3403(2) 0.0550(2)
C25 C -0.1067(6) 0.34008(19) 0.08023(18)
H34 H -0.0923 0.3305 0.0951
C26 C -0.1622(6) 0.35367(18) 0.08189(15)
C27 C -0.2101(4) 0.35798(17) 0.10623(17)
C28 C -0.0942(5) 0.31316(14) -0.0116(2)
H35 H -0.1056 0.3089 0.0076
H36 H -0.0483 0.3054 -0.0166
C29 C -0.1542(5) 0.30450(12) -0.0303(2)
H37 H -0.2014 0.3112 -0.0248
H38 H -0.1444 0.3088 -0.0496
C30 C -0.1538(6) 0.27822(14) -0.0266(2)
H39 H -0.1081 0.2714 -0.0335
H40 H -0.1595 0.2740 -0.0071
C31 C -0.2174(6) 0.26955(16) -0.04323(19)
H41 H -0.2288 0.2532 -0.0385
H42 H -0.2607 0.2793 -0.0398
C32 C -0.1945(8) 0.2714(2) -0.0726(2)
H43 H -0.1552 0.2602 -0.0766
H44 H -0.1770 0.2874 -0.0767
C33 C -0.2606(10) 0.2659(4) -0.0895(3)
H45 H -0.2489 0.2673 -0.1090
H46 H -0.2993 0.2768 -0.0849
H47 H -0.2765 0.2499 -0.0855
C34 C -0.0018(6) 0.3254(2) 0.0480(3)
H48 H 0.0005 0.3243 0.0278
H49 H -0.0115 0.3095 0.0549
C35 C 0.0750(10) 0.3324(7) 0.0581(5)
H50 H 0.0848 0.3263 0.0767
H51 H 0.0822 0.3495 0.0578
C36 C 0.1224(11) 0.3198(6) 0.0360(7)
H52 H 0.1655 0.3123 0.0442
H53 H 0.0944 0.3081 0.0256
C37 C -0.2171(8) 0.3459(2) -0.09220(19)
C38 C -0.2732(7) 0.34288(16) -0.06649(18)
C39 C -0.3226(7) 0.3273(2) -0.06331(18)
H54 H -0.3348 0.3160 -0.0767
C40 C -0.3570(6) 0.3293(2) -0.03715(18)
C41 C -0.3219(5) 0.34610(13) -0.02148(14)
C42 C -0.3909(5) 0.39437(13) 0.06448(18)
C43 C -0.4175(6) 0.3144(2) -0.0289(2)
H55 H -0.4273 0.3167 -0.0091
H56 H -0.4041 0.2979 -0.0317
C44 C -0.4857(7) 0.3197(2) -0.0451(3)
H57 H -0.5238 0.3080 -0.0412
H58 H -0.4757 0.3197 -0.0650
C45 C -0.5084(8) 0.3438(2) -0.0354(4)
H59 H -0.5289 0.3431 -0.0167
H60 H -0.4667 0.3546 -0.0354
C46 C -0.5653(12) 0.3516(3) -0.0560(5)
H61 H -0.5978 0.3635 -0.0478
H62 H -0.5424 0.3583 -0.0726
C47 C -0.6065(11) 0.3295(5) -0.0629(7)
H63 H -0.6573 0.3330 -0.0677
H64 H -0.6059 0.3184 -0.0473
C48 C -0.566(4) 0.3194(8) -0.0874(10)
H65 H -0.5970 0.3081 -0.0968
H66 H -0.5220 0.3117 -0.0811
H67 H -0.5536 0.3320 -0.1001
C49 C -0.3211(4) 0.31325(13) 0.03305(16)
H68 H -0.3638 0.3042 0.0391
H69 H -0.3071 0.3074 0.0147
C50 C -0.2595(5) 0.30848(13) 0.05286(19)
H70 H -0.2139 0.3153 0.0460
H71 H -0.2701 0.3152 0.0711
C51 C -0.2535(8) 0.28239(16) 0.0546(3)
H72 H -0.2631 0.2751 0.0366
H73 H -0.2880 0.2760 0.0682
C52 C -0.1765(8) 0.2781(3) 0.0635(5)
H74 H -0.1534 0.2662 0.0517
H75 H -0.1479 0.2926 0.0625
C53 C -0.1818(16) 0.2695(5) 0.0926(4)
H76 H -0.2261 0.2754 0.1016
H77 H -0.1393 0.2745 0.1035
C54 C -0.184(2) 0.2431(4) 0.0898(6)
H78 H -0.1920 0.2360 0.1078
H79 H -0.1383 0.2375 0.0822
H80 H -0.2238 0.2387 0.0775
C55 C 0.0441(8) 0.3915(2) -0.1492(2)
C56 C 0.1545(6) 0.41331(17) -0.20916(19)
C57 C 0.0775(7) 0.39685(18) -0.17797(18)
C58 C 0.1272(9) 0.41360(19) -0.1826(2)
H81 H 0.1420 0.4245 -0.1691
C59 C 0.1193(7) 0.39835(17) -0.22595(19)
C60 C 0.1189(6) 0.39297(15) -0.25453(16)
C61 C 0.1209(8) 0.40700(17) -0.27697(19)
C62 C 0.1285(6) 0.39566(15) -0.30271(17)
H82 H 0.1283 0.4030 -0.3202
C63 C 0.1362(6) 0.37231(16) -0.29787(17)
C64 C 0.1522(7) 0.35389(15) -0.31855(18)
C65 C 0.2201(8) 0.4267(2) -0.2200(3)
H83 H 0.2075 0.4435 -0.2204
H84 H 0.2288 0.4218 -0.2391
C66 C 0.2916(11) 0.4240(3) -0.2039(4)
H85 H 0.2828 0.4223 -0.1840
H86 H 0.3243 0.4374 -0.2071
C67 C 0.3231(13) 0.4011(5) -0.2164(5)
H87 H 0.3595 0.4044 -0.2307
H88 H 0.2846 0.3910 -0.2240
C68 C 0.3582(15) 0.3901(5) -0.1901(7)
H89 H 0.3551 0.4007 -0.1742
H90 H 0.4092 0.3857 -0.1933
C69 C 0.309(4) 0.3681(7) -0.1865(8)
H91 H 0.2596 0.3708 -0.1941
H92 H 0.3299 0.3541 -0.1951
C70 C 0.307(5) 0.3661(11) -0.1545(8)
H93 H 0.2739 0.3536 -0.1491
H94 H 0.2906 0.3809 -0.1466
H95 H 0.3557 0.3625 -0.1478
C71 C 0.1088(5) 0.43370(16) -0.2767(2)
H96 H 0.1056 0.4392 -0.2575
H97 H 0.1506 0.4415 -0.2854
C72 C 0.0397(6) 0.44038(14) -0.2919(2)
H98 H 0.0410 0.4346 -0.3110
H99 H -0.0033 0.4338 -0.2826
C73 C 0.0382(7) 0.46671(15) -0.2913(3)
H100 H 0.0496 0.4725 -0.2727
H101 H 0.0739 0.4732 -0.3043
C74 C -0.0370(8) 0.4737(2) -0.2994(3)
H102 H -0.0448 0.4905 -0.2956
H103 H -0.0731 0.4646 -0.2889
C75 C -0.0442(10) 0.4688(4) -0.3296(3)
H104 H -0.0504 0.4519 -0.3330
H105 H -0.0012 0.4744 -0.3398
C76 C -0.1115(12) 0.4823(5) -0.3381(4)
H106 H -0.1221 0.4793 -0.3574
H107 H -0.1031 0.4990 -0.3354
H108 H -0.1525 0.4774 -0.3268
C77 C -0.0523(9) 0.31613(18) -0.1192(2)
C78 C -0.0286(9) 0.29631(17) -0.1074(2)
C79 C 0.0205(10) 0.2971(2) -0.0873(3)
H109 H 0.0324 0.3117 -0.0793
C80 C 0.0617(9) 0.2730(2) -0.0757(3)
C81 C 0.0255(7) 0.25728(15) -0.0958(2)
C82 C 0.0390(6) 0.23222(17) -0.0958(2)
C83 C 0.0082(7) 0.2147(2) -0.0846(2)
C84 C 0.0312(7) 0.19201(15) -0.0927(2)
H110 H 0.0124 0.1778 -0.0857
C85 C 0.0839(7) 0.19382(16) -0.11172(17)
C86 C 0.1263(6) 0.17442(16) -0.12510(17)
C87 C 0.1041(12) 0.2730(4) -0.0491(4)
H111 H 0.1090 0.2889 -0.0414
H112 H 0.1525 0.2659 -0.0514
C88 C 0.0535(12) 0.2575(4) -0.0316(4)
H113 H 0.0517 0.2413 -0.0386
H114 H 0.0039 0.2639 -0.0308
C89 C 0.0914(10) 0.2586(5) -0.0029(4)
H115 H 0.1100 0.2744 0.0012
H116 H 0.1311 0.2471 -0.0013
C90 C 0.0257(13) 0.2520(5) 0.0159(5)
H117 H -0.0158 0.2627 0.0131
H118 H 0.0099 0.2357 0.0130
C91 C 0.0607(18) 0.2555(6) 0.0448(4)
H119 H 0.1062 0.2466 0.0466
H120 H 0.0272 0.2511 0.0597
C92 C -0.0589(10) 0.2155(3) -0.0665(4)
H121 H -0.0950 0.2058 -0.0762
H122 H -0.0765 0.2318 -0.0681
C93 C -0.0680(11) 0.2093(6) -0.0358(4)
H123 H -0.0378 0.2193 -0.0240
H124 H -0.0562 0.1927 -0.0323
C94 C -0.1498(14) 0.2142(7) -0.0317(5)
H125 H -0.1590 0.2310 -0.0285
H126 H -0.1787 0.2089 -0.0476
C95 C -0.166(2) 0.1995(5) -0.0058(7)
H127 H -0.1347 0.1856 -0.0047
H128 H -0.2174 0.1946 -0.0052
C96 C -0.148(2) 0.2174(10) 0.0172(6)
H129 H -0.1341 0.2327 0.0096
H130 H -0.1101 0.2115 0.0296
C97 C -0.223(3) 0.2187(9) 0.0320(10)
H131 H -0.2298 0.2343 0.0396
H132 H -0.2244 0.2071 0.0468
H133 H -0.2616 0.2153 0.0188
C98 C -0.3286(7) 0.43595(18) 0.1299(2)
C99 C -0.2846(7) 0.45669(14) 0.1430(2)
C100 C -0.2364(6) 0.45488(15) 0.1617(2)
H134 H -0.2240 0.4408 0.1708
C101 C -0.2045(6) 0.47676(15) 0.1667(2)
C102 C -0.2342(7) 0.49519(16) 0.15161(16)
C103 C -0.2140(7) 0.51933(14) 0.1496(2)
C104 C -0.2546(7) 0.53920(16) 0.1584(2)
C105 C -0.1599(6) 0.55709(13) 0.13755(19)
C106 C -0.2237(7) 0.55974(13) 0.1519(2)
H135 H -0.2437 0.5744 0.1566
C107 C -0.1177(8) 0.57409(16) 0.1253(2)
C108 C -0.1530(8) 0.4811(2) 0.1888(2)
H136 H -0.1358 0.4973 0.1860
H137 H -0.1112 0.4709 0.1850
C109 C -0.1675(7) 0.4788(2) 0.21947(19)
H138 H -0.1234 0.4824 0.2302
H139 H -0.1838 0.4629 0.2241
C110 C -0.2271(7) 0.4967(2) 0.22529(18)
H140 H -0.2131 0.5123 0.2186
H141 H -0.2730 0.4920 0.2165
C111 C -0.2343(7) 0.4966(2) 0.25652(19)
H142 H -0.2464 0.4808 0.2633
H143 H -0.1888 0.5017 0.2653
C112 C -0.2951(7) 0.5136(2) 0.2626(2)
H144 H -0.2818 0.5296 0.2568
H145 H -0.3399 0.5090 0.2529
C113 C -0.3057(9) 0.5125(3) 0.2934(2)
H146 H -0.3438 0.5234 0.2988
H147 H -0.2604 0.5167 0.3026
H148 H -0.3195 0.4966 0.2987
C114 C -0.3230(11) 0.5368(3) 0.1688(4)
H149 H -0.3336 0.5201 0.1725
H150 H -0.3592 0.5427 0.1556
C115 C -0.3254(13) 0.5509(4) 0.1954(4)
H151 H -0.3142 0.5675 0.1920
H152 H -0.2913 0.5446 0.2092
C116 C -0.4045(13) 0.5476(7) 0.2046(4)
H153 H -0.4326 0.5622 0.2024
H154 H -0.4284 0.5350 0.1941
C117 C -0.396(2) 0.5410(8) 0.2350(6)
H155 H -0.3972 0.5239 0.2376
H156 H -0.3500 0.5472 0.2426
C118 C -0.3199(7) 0.36496(19) 0.19161(18)
C119 C -0.3417(6) 0.38246(15) 0.21125(16)
C120 C -0.3404(6) 0.40524(18) 0.20525(18)
H157 H -0.3273 0.4118 0.1881
C121 C -0.3784(6) 0.40390(16) 0.25198(17)
C122 C -0.3931(6) 0.40952(15) 0.28077(18)
C123 C -0.4576(7) 0.40791(18) 0.32506(15)
C124 C -0.5089(8) 0.4051(2) 0.3495(2)
C125 C -0.3804(5) 0.44515(15) 0.22938(19)
H158 H -0.3937 0.4504 0.2480
H159 H -0.3360 0.4536 0.2240
C126 C -0.4406(5) 0.45165(13) 0.20986(19)
H160 H -0.4297 0.4457 0.1913
H161 H -0.4867 0.4446 0.2160
C127 C -0.5156(5) 0.48344(17) 0.19434(16)
H162 H -0.5552 0.4731 0.2004
H163 H -0.5297 0.4998 0.1982
C128 C -0.5712(8) 0.4865(3) 0.1498(3)
H164 H -0.5641 0.4851 0.1300
H165 H -0.5845 0.5026 0.1543
H166 H -0.6097 0.4759 0.1557
C129 C -0.2313(6) 0.4302(3) 0.3125(3)
H167 H -0.2471 0.4308 0.3319
H168 H -0.2161 0.4141 0.3081
C130 C -0.1699(7) 0.4472(3) 0.3076(4)
H169 H -0.1506 0.4531 0.3251
H170 H -0.1862 0.4605 0.2963
C131 C -0.3634(6) 0.41861(14) 0.23026(17)
C132 C -0.3629(6) 0.42333(17) 0.29775(18)
C133 C -0.4047(6) 0.42365(17) 0.32497(17)
H171 H -0.3942 0.4338 0.3398
C134 C -0.4469(5) 0.47754(13) 0.20937(17)
H172 H -0.4048 0.4845 0.1999
H173 H -0.4486 0.4838 0.2283
C135 C -0.5020(6) 0.4803(2) 0.16440(16)
H174 H -0.4885 0.4639 0.1605
H175 H -0.4622 0.4905 0.1583
C136 C -0.2921(5) 0.4379(2) 0.2937(2)
H176 H -0.2760 0.4364 0.2744
H177 H -0.3028 0.4546 0.2971
C137 C -0.1134(12) 0.4329(4) 0.2925(7)
H178 H -0.1320 0.4276 0.2745
H179 H -0.0992 0.4191 0.3034
C138 C -0.0498(10) 0.4494(6) 0.2889(6)
H180 H -0.0470 0.4605 0.3043
H181 H -0.0039 0.4406 0.2878
C139 C -0.065(3) 0.4621(7) 0.2622(9)
H182 H -0.0250 0.4730 0.2585
H183 H -0.1100 0.4707 0.2637
H184 H -0.0680 0.4508 0.2473
O9 O -0.0329(4) 0.41075(9) -0.05442(11)
O10 O -0.0275(4) 0.38237(9) -0.08430(11)
O11 O -0.2584(4) 0.37259(11) 0.10469(10)
O12 O -0.1910(4) 0.34580(12) 0.12772(13)
O13 O -0.1814(4) 0.36274(9) -0.09423(11)
O14 O -0.2314(6) 0.32811(13) -0.11054(13)
O15 O -0.3999(4) 0.41465(8) 0.05536(12)
O16 O -0.4057(3) 0.39015(9) 0.09032(12)
O17 O 0.0685(5) 0.40491(13) -0.13026(14)
O18 O -0.0034(5) 0.37728(10) -0.14807(14)
O19 O 0.1569(5) 0.35877(8) -0.34449(11)
O20 O 0.1692(5) 0.33337(12) -0.31011(12)
O21 O -0.0456(5) 0.33653(11) -0.11126(14)
O22 O -0.1005(8) 0.30906(16) -0.13697(18)
O23 O 0.1783(5) 0.18128(9) -0.14205(13)
O24 O 0.1055(4) 0.15393(8) -0.12099(11)
O25 O -0.3151(4) 0.41599(11) 0.13644(12)
O26 O -0.3774(5) 0.44223(10) 0.11152(14)
O27 O -0.0585(5) 0.56729(12) 0.11430(14)
O28 O -0.1320(5) 0.59475(9) 0.12783(12)
O29 O -0.3074(5) 0.34335(10) 0.19900(12)
O30 O -0.2988(4) 0.37040(10) 0.16620(11)
O31 O -0.5511(4) 0.38906(11) 0.34832(11)
O32 O -0.4863(5) 0.41761(12) 0.37035(14)
S1 S -0.07661(14) 0.38344(4) -0.00585(4)
S2 S -0.17751(12) 0.36654(4) 0.05074(4)
S3 S -0.25320(13) 0.35973(3) -0.03889(4)
S4 S -0.35308(13) 0.38142(3) 0.01308(4)
S5 S 0.05412(16) 0.38314(4) -0.20636(4)
S6 S 0.13425(18) 0.36460(4) -0.26448(5)
S7 S -0.0309(2) 0.26891(4) -0.11863(5)
S8 S 0.10425(18) 0.22233(4) -0.11952(5)
S9 S -0.30228(18) 0.48371(4) 0.13075(5)
S10 S -0.13973(18) 0.52713(4) 0.13284(5)
S11 S -0.36370(17) 0.37452(4) 0.24318(4)
S12 S -0.46699(17) 0.39387(4) 0.29530(4)
Mn1 Mn 0.02892(11) 0.41672(2) -0.09330(3)
Mn2 Mn -0.09034(10) 0.37034(2) -0.12038(3)
Mn3 Mn -0.20169(17) 0.32154(3) -0.14904(3)
Mn4 Mn -0.46390(10) 0.42528(2) 0.09299(3)
Mn5 Mn -0.35257(9) 0.38069(2) 0.12859(3)
Mn6 Mn -0.24126(10) 0.33510(3) 0.16237(3)
O19B O -0.1569(5) 0.35877(8) -0.15551(11)
O20B O -0.1692(5) 0.33337(12) -0.18989(12)
O23G O -0.3217(5) 0.31872(9) 0.14205(13)
O24G O -0.3945(4) 0.34607(8) 0.12099(11)
O27C O -0.0585(5) 0.43271(12) -0.11430(14)
O28C O -0.1320(5) 0.40525(9) -0.12783(12)
O31B O -0.4489(4) 0.38906(11) 0.15168(11)
O32B O -0.5137(5) 0.41761(12) 0.12965(14)
Mn1C Mn 0.02892(11) 0.58328(2) 0.09330(3)
Mn2B Mn 0.09034(10) 0.37034(2) -0.37962(3)
Mn2C Mn -0.09034(10) 0.62966(2) 0.12038(3)
Mn3B Mn 0.20169(17) 0.32154(3) -0.35096(3)
Mn4B Mn -0.53610(10) 0.42528(2) 0.40701(3)
Mn5B Mn -0.64743(9) 0.38069(2) 0.37141(3)
Mn5G Mn 0.14743(9) 0.11931(2) -0.12859(3)
Mn6G Mn 0.25874(10) 0.16490(3) -0.16237(3)
loop_
_geom_bond_atom_site_label_1
_geom_bond_atom_site_label_2
_geom_bond_site_symmetry_1
_geom_bond_site_symmetry_2
O1 Mn4 1_555 1_555
O2 Mn1 1_555 1_555
O3 Mn6 1_555 1_555
O4 Mn3 1_555 1_555
C1 H1 1_555 1_555
H2 C1 1_555 1_555
H3 C1 1_555 1_555
C2 H4 1_555 1_555
H5 C2 1_555 1_555
C3 C2 1_555 1_555
H6 C3 1_555 1_555
H7 C3 1_555 1_555
C4 C3 1_555 1_555
H8 C4 1_555 1_555
H9 C4 1_555 1_555
H10 C4 1_555 1_555
C5 C6 1_555 1_555
C6 C7 1_555 1_555
C7 H11 1_555 1_555
C8 C7 1_555 1_555
N1 C9 1_555 1_555
O5 C9 1_555 1_555
C9 H12 1_555 1_555
C10 N1 1_555 1_555
H13 C10 1_555 1_555
H14 C10 1_555 1_555
H15 C10 1_555 1_555
C11 N1 1_555 1_555
H16 C11 1_555 1_555
H17 C11 1_555 1_555
H18 C11 1_555 1_555
N2 C12 1_555 1_555
O6 C12 1_555 1_555
C12 H19 1_555 1_555
C13 N2 1_555 1_555
H20 C13 1_555 1_555
H21 C13 1_555 1_555
H22 C13 1_555 1_555
C14 N2 1_555 1_555
H23 C14 1_555 1_555
H24 C14 1_555 1_555
H25 C14 1_555 1_555
N3 C15 1_555 1_555
O7 C15 1_555 1_555
C15 H26 1_555 1_555
C16 N3 1_555 1_555
H27 C16 1_555 1_555
H28 C16 1_555 1_555
H29 C16 1_555 1_555
C17 N3 1_555 1_555
H30 C17 1_555 1_555
H31 C17 1_555 1_555
H32 C17 1_555 1_555
O8 Mn3 1_555 1_555
C18 C19 1_555 1_555
C19 C20 1_555 1_555
C20 H33 1_555 1_555
C21 C20 1_555 1_555
C22 C21 1_555 1_555
C23 C22 1_555 1_555
C24 C23 1_555 1_555
C25 C24 1_555 1_555
H34 C25 1_555 1_555
C26 C25 1_555 1_555
C27 C26 1_555 1_555
C28 C21 1_555 1_555
H35 C28 1_555 1_555
H36 C28 1_555 1_555
C29 C28 1_555 1_555
H37 C29 1_555 1_555
H38 C29 1_555 1_555
C30 C29 1_555 1_555
H39 C30 1_555 1_555
H40 C30 1_555 1_555
C31 C30 1_555 1_555
H41 C31 1_555 1_555
H42 C31 1_555 1_555
C32 C31 1_555 1_555
H43 C32 1_555 1_555
H44 C32 1_555 1_555
C33 C32 1_555 1_555
H45 C33 1_555 1_555
H46 C33 1_555 1_555
H47 C33 1_555 1_555
C34 C24 1_555 1_555
H48 C34 1_555 1_555
H49 C34 1_555 1_555
C35 C34 1_555 1_555
H50 C35 1_555 1_555
H51 C35 1_555 1_555
C36 C2 1_555 1_555
H52 C36 1_555 1_555
H53 C36 1_555 1_555
C37 C38 1_555 1_555
C38 C39 1_555 1_555
C39 H54 1_555 1_555
C40 C39 1_555 1_555
C41 C5 1_555 1_555
C42 C8 1_555 1_555
C43 C40 1_555 1_555
H55 C43 1_555 1_555
H56 C43 1_555 1_555
C44 C43 1_555 1_555
H57 C44 1_555 1_555
H58 C44 1_555 1_555
C45 C44 1_555 1_555
H59 C45 1_555 1_555
H60 C45 1_555 1_555
C46 C45 1_555 1_555
H61 C46 1_555 1_555
H62 C46 1_555 1_555
C47 C46 1_555 1_555
H63 C47 1_555 1_555
H64 C47 1_555 1_555
C48 C47 1_555 1_555
H65 C48 1_555 1_555
H66 C48 1_555 1_555
H67 C48 1_555 1_555
C49 C6 1_555 1_555
H68 C49 1_555 1_555
H69 C49 1_555 1_555
C50 C49 1_555 1_555
H70 C50 1_555 1_555
H71 C50 1_555 1_555
C51 C50 1_555 1_555
H72 C51 1_555 1_555
H73 C51 1_555 1_555
C52 C51 1_555 1_555
H74 C52 1_555 1_555
H75 C52 1_555 1_555
C53 C52 1_555 1_555
H76 C53 1_555 1_555
H77 C53 1_555 1_555
C54 C53 1_555 1_555
H78 C54 1_555 1_555
H79 C54 1_555 1_555
H80 C54 1_555 1_555
C55 C57 1_555 1_555
C56 C58 1_555 1_555
C57 C58 1_555 1_555
C58 H81 1_555 1_555
C59 C56 1_555 1_555
C60 C59 1_555 1_555
C61 C60 1_555 1_555
C62 C61 1_555 1_555
H82 C62 1_555 1_555
C63 C62 1_555 1_555
C64 C63 1_555 1_555
C65 C56 1_555 1_555
H83 C65 1_555 1_555
H84 C65 1_555 1_555
C66 C65 1_555 1_555
H85 C66 1_555 1_555
H86 C66 1_555 1_555
C67 C66 1_555 1_555
H87 C67 1_555 1_555
H88 C67 1_555 1_555
C68 C67 1_555 1_555
H89 C68 1_555 1_555
H90 C68 1_555 1_555
C69 C68 1_555 1_555
H91 C69 1_555 1_555
H92 C69 1_555 1_555
C70 C69 1_555 1_555
H93 C70 1_555 1_555
H94 C70 1_555 1_555
H95 C70 1_555 1_555
C71 C61 1_555 1_555
H96 C71 1_555 1_555
H97 C71 1_555 1_555
C72 C71 1_555 1_555
H98 C72 1_555 1_555
H99 C72 1_555 1_555
C73 C72 1_555 1_555
H100 C73 1_555 1_555
H101 C73 1_555 1_555
C74 C73 1_555 1_555
H102 C74 1_555 1_555
H103 C74 1_555 1_555
C75 C74 1_555 1_555
H104 C75 1_555 1_555
H105 C75 1_555 1_555
C76 C75 1_555 1_555
H106 C76 1_555 1_555
H107 C76 1_555 1_555
H108 C76 1_555 1_555
C77 C78 1_555 1_555
C78 C79 1_555 1_555
C79 H109 1_555 1_555
C80 C79 1_555 1_555
C81 C80 1_555 1_555
C82 C81 1_555 1_555
C83 C82 1_555 1_555
C84 C83 1_555 1_555
H110 C84 1_555 1_555
C85 C84 1_555 1_555
C86 C85 1_555 1_555
C87 C80 1_555 1_555
H111 C87 1_555 1_555
H112 C87 1_555 1_555
C88 C87 1_555 1_555
H113 C88 1_555 1_555
H114 C88 1_555 1_555
C89 C88 1_555 1_555
H115 C89 1_555 1_555
H116 C89 1_555 1_555
C90 C89 1_555 1_555
H117 C90 1_555 1_555
H118 C90 1_555 1_555
C91 C1 1_555 1_555
H119 C91 1_555 1_555
H120 C91 1_555 1_555
C92 C83 1_555 1_555
H121 C92 1_555 1_555
H122 C92 1_555 1_555
C93 C92 1_555 1_555
H123 C93 1_555 1_555
H124 C93 1_555 1_555
C94 C93 1_555 1_555
H125 C94 1_555 1_555
H126 C94 1_555 1_555
C95 C94 1_555 1_555
H127 C95 1_555 1_555
H128 C95 1_555 1_555
C96 C95 1_555 1_555
H129 C96 1_555 1_555
H130 C96 1_555 1_555
C97 C96 1_555 1_555
H131 C97 1_555 1_555
H132 C97 1_555 1_555
H133 C97 1_555 1_555
C98 C99 1_555 1_555
C99 C100 1_555 1_555
C100 H134 1_555 1_555
C101 C100 1_555 1_555
C102 C101 1_555 1_555
C103 C102 1_555 1_555
C104 C103 1_555 1_555
C105 C106 1_555 1_555
C106 C104 1_555 1_555
H135 C106 1_555 1_555
C107 C105 1_555 1_555
C108 C101 1_555 1_555
H136 C108 1_555 1_555
H137 C108 1_555 1_555
C109 C108 1_555 1_555
H138 C109 1_555 1_555
H139 C109 1_555 1_555
C110 C109 1_555 1_555
H140 C110 1_555 1_555
H141 C110 1_555 1_555
C111 C110 1_555 1_555
H142 C111 1_555 1_555
H143 C111 1_555 1_555
C112 C111 1_555 1_555
H144 C112 1_555 1_555
H145 C112 1_555 1_555
C113 C112 1_555 1_555
H146 C113 1_555 1_555
H147 C113 1_555 1_555
H148 C113 1_555 1_555
C114 C104 1_555 1_555
H149 C114 1_555 1_555
H150 C114 1_555 1_555
C115 C114 1_555 1_555
H151 C115 1_555 1_555
H152 C115 1_555 1_555
C116 C115 1_555 1_555
H153 C116 1_555 1_555
H154 C116 1_555 1_555
C117 C116 1_555 1_555
H155 C117 1_555 1_555
H156 C117 1_555 1_555
C118 C119 1_555 1_555
C119 C120 1_555 1_555
C120 H157 1_555 1_555
C121 C122 1_555 1_555
C122 C132 1_555 1_555
C123 C124 1_555 1_555
C124 O31 1_555 1_555
C125 H158 1_555 1_555
H159 C125 1_555 1_555
C126 C125 1_555 1_555
H160 C126 1_555 1_555
H161 C126 1_555 1_555
C127 H162 1_555 1_555
H163 C127 1_555 1_555
C128 H164 1_555 1_555
H165 C128 1_555 1_555
H166 C128 1_555 1_555
C129 H167 1_555 1_555
H168 C129 1_555 1_555
C130 C129 1_555 1_555
H169 C130 1_555 1_555
H170 C130 1_555 1_555
C131 C120 1_555 1_555
C132 C133 1_555 1_555
C133 C123 1_555 1_555
H171 C133 1_555 1_555
C134 C126 1_555 1_555
H172 C134 1_555 1_555
H173 C134 1_555 1_555
C135 C127 1_555 1_555
H174 C135 1_555 1_555
H175 C135 1_555 1_555
C136 C129 1_555 1_555
H176 C136 1_555 1_555
H177 C136 1_555 1_555
C137 C130 1_555 1_555
H178 C137 1_555 1_555
H179 C137 1_555 1_555
C138 C137 1_555 1_555
H180 C138 1_555 1_555
H181 C138 1_555 1_555
C139 C138 1_555 1_555
H182 C139 1_555 1_555
H183 C139 1_555 1_555
H184 C139 1_555 1_555
O9 C18 1_555 1_555
O10 C18 1_555 1_555
O11 C27 1_555 1_555
O12 C27 1_555 1_555
O13 C37 1_555 1_555
O14 C37 1_555 1_555
O15 C42 1_555 1_555
O16 C42 1_555 1_555
O17 C55 1_555 1_555
O18 C55 1_555 1_555
O19 C64 1_555 1_555
O20 C64 1_555 1_555
O21 C77 1_555 1_555
O22 C77 1_555 1_555
O23 C86 1_555 1_555
O24 C86 1_555 1_555
O25 C98 1_555 1_555
O26 C98 1_555 1_555
O27 C107 1_555 1_555
O28 C107 1_555 1_555
O29 C118 1_555 1_555
O30 C118 1_555 1_555
O31 Mn5B 1_555 1_555
O32 C124 1_555 1_555
S1 C19 1_555 1_555
S2 C23 1_555 1_555
S3 C38 1_555 1_555
S4 C5 1_555 1_555
S5 C57 1_555 1_555
S6 C60 1_555 1_555
S7 C78 1_555 1_555
S8 C82 1_555 1_555
S9 C99 1_555 1_555
S10 C103 1_555 1_555
S11 C119 1_555 1_555
S12 C122 1_555 1_555
Mn1 O7 1_555 1_555
Mn2 O10 1_555 1_555
Mn3 O14 1_555 1_555
Mn4 O5 1_555 1_555
Mn5 O11 1_555 1_555
Mn6 O6 1_555 1_555
N4 C140 1_555 1_555
O33 C140 1_555 1_555
C140 H185 1_555 1_555
C141 N4 1_555 1_555
H186 C141 1_555 1_555
H187 C141 1_555 1_555
H188 C141 1_555 1_555
C142 N4 1_555 1_555
H189 C142 1_555 1_555
H190 C142 1_555 1_555
H191 C142 1_555 1_555
N5 C143 1_555 1_555
O34 C143 1_555 1_555
C143 H192 1_555 1_555
C144 N5 1_555 1_555
H193 C144 1_555 1_555
H194 C144 1_555 1_555
H195 C144 1_555 1_555
C145 N5 1_555 1_555
H196 C145 1_555 1_555
H197 C145 1_555 1_555
H198 C145 1_555 1_555
O19B Mn2 1_555 1_555
O20B Mn3 1_555 1_555
O23G Mn6 1_555 1_555
O24G Mn5 1_555 1_555
O27C Mn1 1_555 1_555
O28C Mn2 1_555 1_555
O31B Mn5 1_555 1_555
O32B Mn4 1_555 1_555
Mn1C O27 1_555 1_555
Mn2B O19 1_555 1_555
Mn2C O28 1_555 1_555
Mn3B O19 1_555 1_555
Mn4B O32 1_555 1_555
Mn5G O24 1_555 1_555
Mn6G O23 1_555 1_555
C8 S4 1_555 1_555
C22 S1 1_555 1_555
C26 S2 1_555 1_555
C35 C36 1_555 1_555
C40 C41 1_555 1_555
C41 S3 1_555 1_555
C59 S5 1_555 1_555
C63 S6 1_555 1_555
C81 S7 1_555 1_555
C85 S8 1_555 1_555
C90 C91 1_555 1_555
C102 S9 1_555 1_555
C105 S10 1_555 1_555
C121 C131 1_555 1_555
C121 S11 1_555 1_555
C123 S12 1_555 1_555
C125 C131 1_555 1_555
C127 C134 1_555 1_555
C128 C135 1_555 1_555
C132 C136 1_555 1_555
O9 Mn1 1_555 1_555
O10 Mn1 1_555 1_555
O12 Mn6 1_555 1_555
O13 Mn2 1_555 1_555
O15 Mn4 1_555 1_555
O16 Mn4 1_555 1_555
O16 Mn5 1_555 1_555
O17 Mn1 1_555 1_555
O18 Mn2 1_555 1_555
O20 Mn3B 1_555 1_555
O21 Mn2 1_555 1_555
O22 Mn3 1_555 1_555
O25 Mn5 1_555 1_555
O26 Mn4 1_555 1_555
O29 Mn6 1_555 1_555
O30 Mn5 1_555 1_555
O30 Mn6 1_555 1_555
Mn3 O19B 1_555 1_555

#END
