
#######################################################################
#
#                 Cambridge Crystallographic Data Centre
#                                CCDC 
#
#######################################################################
#
# If this CIF has been generated from an entry in the Cambridge 
# Structural Database, then it will include bibliographic, chemical, 
# crystal, experimental, refinement or atomic coordinate data resulting 
# from the CCDC's data processing and validation procedures.
#
#######################################################################

data_ONIXOZ
_chemical_formula_moiety         '(C120 H48 Cu12 O48)n'
_symmetry_cell_setting           hexagonal
_symmetry_space_group_name_H-M   'P 63/m c m'
_symmetry_Int_Tables_number      193
_space_group_name_Hall           '-P 6c 2'
loop_
_symmetry_equiv_pos_site_id
_symmetry_equiv_pos_as_xyz
1 x,y,z
2 x-y,x,1/2+z
3 -y,x-y,z
4 -x,-y,1/2+z
5 -x+y,-x,z
6 y,-x+y,1/2+z
7 x-y,-y,1/2-z
8 x,x-y,-z
9 y,x,1/2-z
10 -x+y,y,-z
11 -x,-x+y,1/2-z
12 -y,-x,-z
13 -x,-y,-z
14 -x+y,-x,1/2-z
15 y,-x+y,-z
16 x,y,1/2-z
17 x-y,x,-z
18 -y,x-y,1/2-z
19 -x+y,y,1/2+z
20 -x,-x+y,z
21 -y,-x,1/2+z
22 x-y,-y,z
23 x,x-y,1/2+z
24 y,x,z
_cell_length_a                   22.2866(14)
_cell_length_b                   22.2866(14)
_cell_length_c                   12.8164(12)
_cell_angle_alpha                90
_cell_angle_beta                 90
_cell_angle_gamma                120
_cell_volume                     5512.95
loop_
_atom_site_label
_atom_site_type_symbol
_atom_site_fract_x
_atom_site_fract_y
_atom_site_fract_z
_atom_site_U_iso_or_equiv
_atom_site_thermal_displace_type
C1 C 0.1956 0.4803 -0.0524 0.0100 Uiso
C2 C 0.0957 0.3720 -0.1175 0.0100 Uiso
C3 C 0.1596 0.4077 -0.0532 0.0100 Uiso
O1 O 0.0734 0.3090 -0.1423 0.0100 Uiso
O2 O 0.0708 0.4105 -0.1450 0.0100 Uiso
H1 H 0.1741 0.5072 -0.0960 0.0200 Uiso
Cu1 Cu -0.0000 0.3791 -0.2500 0.0100 Uiso
Cu2 Cu 0.0000 0.2687 -0.2500 0.0100 Uiso
C4 C 0.2969 0.5938 0.0000 0.0100 Uiso
C5 C 0.2588 0.5175 0.0000 0.0100 Uiso
C6 C 0.1854 0.3707 0.0000 0.0100 Uiso
H2 H 0.1572 0.3143 0.000 0.0200 Uiso
C7 C 0.3694 0.6306 0.0000 0.0100 Uiso
H3 H 0.3977 0.6023 0.000 0.0200 Uiso
C1I C 0.2847 0.4803 0.0524 0.0100 Uiso
C1B C 0.5197 0.7153 -0.0524 0.0100 Uiso
C1K C 0.5197 0.8044 0.0524 0.0100 Uiso
C1D C 0.2847 0.8044 -0.0524 0.0100 Uiso
C1G C 0.1956 0.7153 0.0524 0.0100 Uiso
C1J C -0.1956 0.2847 -0.4476 0.0100 Uiso
C1A C -0.2847 0.1956 -0.5524 0.0100 Uiso
C1H C -0.5197 0.1956 -0.4476 0.0100 Uiso
C1E C -0.5197 0.2847 -0.5524 0.0100 Uiso
C1F C -0.2847 0.5197 -0.4476 0.0100 Uiso
C1C C -0.1956 0.5197 -0.5524 0.0100 Uiso
C1O C 0.1956 0.4803 -0.4476 0.0100 Uiso
C1R C 0.2847 0.4803 -0.5524 0.0100 Uiso
C1Q C 0.5197 0.7153 -0.4476 0.0100 Uiso
C1T C 0.5197 0.8044 -0.5524 0.0100 Uiso
C1M C 0.2847 0.8044 -0.4476 0.0100 Uiso
C1V C 0.1956 0.7153 -0.5524 0.0100 Uiso
C1S C -0.1956 0.2847 -0.0524 0.0100 Uiso
C1P C -0.2847 0.1956 0.0524 0.0100 Uiso
C1W C -0.5197 0.1956 -0.0524 0.0100 Uiso
C1N C -0.5197 0.2847 0.0524 0.0100 Uiso
C1U C -0.2847 0.5197 -0.0524 0.0100 Uiso
C1L C -0.1956 0.5197 0.0524 0.0100 Uiso
C2B C 0.6280 0.7237 -0.1175 0.0100 Uiso
C2K C 0.6280 0.9043 0.1175 0.0100 Uiso
C2D C 0.2763 0.9043 -0.1175 0.0100 Uiso
C2G C 0.0957 0.7237 0.1175 0.0100 Uiso
C2I C 0.2763 0.3720 0.1175 0.0100 Uiso
C2J C -0.0957 0.2763 -0.3825 0.0100 Uiso
C2H C -0.6280 0.0957 -0.3825 0.0100 Uiso
C2E C -0.6280 0.2763 -0.6175 0.0100 Uiso
C2F C -0.2763 0.6280 -0.3825 0.0100 Uiso
C2C C -0.0957 0.6280 -0.6175 0.0100 Uiso
C2A C -0.2763 0.0957 -0.6175 0.0100 Uiso
C2O C 0.0957 0.3720 -0.3825 0.0100 Uiso
C2Q C 0.6280 0.7237 -0.3825 0.0100 Uiso
C2T C 0.6280 0.9043 -0.6175 0.0100 Uiso
C2M C 0.2763 0.9043 -0.3825 0.0100 Uiso
C2V C 0.0957 0.7237 -0.6175 0.0100 Uiso
C2R C 0.2763 0.3720 -0.6175 0.0100 Uiso
C2S C -0.0957 0.2763 -0.1175 0.0100 Uiso
C2W C -0.6280 0.0957 -0.1175 0.0100 Uiso
C2N C -0.6280 0.2763 0.1175 0.0100 Uiso
C2U C -0.2763 0.6280 -0.1175 0.0100 Uiso
C2L C -0.0957 0.6280 0.1175 0.0100 Uiso
C2P C -0.2763 0.0957 0.1175 0.0100 Uiso
C3I C 0.2481 0.4077 0.0532 0.0100 Uiso
C3B C 0.5923 0.7519 -0.0532 0.0100 Uiso
C3K C 0.5923 0.8404 0.0532 0.0100 Uiso
C3D C 0.2481 0.8404 -0.0532 0.0100 Uiso
C3G C 0.1596 0.7519 0.0532 0.0100 Uiso
C3J C -0.1596 0.2481 -0.4468 0.0100 Uiso
C3A C -0.2481 0.1596 -0.5532 0.0100 Uiso
C3H C -0.5923 0.1596 -0.4468 0.0100 Uiso
C3E C -0.5923 0.2481 -0.5532 0.0100 Uiso
C3F C -0.2481 0.5923 -0.4468 0.0100 Uiso
C3C C -0.1596 0.5923 -0.5532 0.0100 Uiso
C3O C 0.1596 0.4077 -0.4468 0.0100 Uiso
C3R C 0.2481 0.4077 -0.5532 0.0100 Uiso
C3Q C 0.5923 0.7519 -0.4468 0.0100 Uiso
C3T C 0.5923 0.8404 -0.5532 0.0100 Uiso
C3M C 0.2481 0.8404 -0.4468 0.0100 Uiso
C3V C 0.1596 0.7519 -0.5532 0.0100 Uiso
C3S C -0.1596 0.2481 -0.0532 0.0100 Uiso
C3P C -0.2481 0.1596 0.0532 0.0100 Uiso
C3W C -0.5923 0.1596 -0.0532 0.0100 Uiso
C3N C -0.5923 0.2481 0.0532 0.0100 Uiso
C3U C -0.2481 0.5923 -0.0532 0.0100 Uiso
C3L C -0.1596 0.5923 0.0532 0.0100 Uiso
O1B O 0.6910 0.7644 -0.1423 0.0100 Uiso
O1K O 0.6910 0.9266 0.1423 0.0100 Uiso
O1D O 0.2356 0.9266 -0.1423 0.0100 Uiso
O1G O 0.0734 0.7644 0.1423 0.0100 Uiso
O1I O 0.2356 0.3090 0.1423 0.0100 Uiso
O1J O -0.0734 0.2356 -0.3577 0.0100 Uiso
O1H O -0.6910 0.0734 -0.3577 0.0100 Uiso
O1E O -0.6910 0.2356 -0.6423 0.0100 Uiso
O1F O -0.2356 0.6910 -0.3577 0.0100 Uiso
O1C O -0.0734 0.6910 -0.6423 0.0100 Uiso
O1A O -0.2356 0.0734 -0.6423 0.0100 Uiso
O1O O 0.0734 0.3090 -0.3577 0.0100 Uiso
O1Q O 0.6910 0.7644 -0.3577 0.0100 Uiso
O1T O 0.6910 0.9266 -0.6423 0.0100 Uiso
O1M O 0.2356 0.9266 -0.3577 0.0100 Uiso
O1V O 0.0734 0.7644 -0.6423 0.0100 Uiso
O1R O 0.2356 0.3090 -0.6423 0.0100 Uiso
O1S O -0.0734 0.2356 -0.1423 0.0100 Uiso
O1W O -0.6910 0.0734 -0.1423 0.0100 Uiso
O1N O -0.6910 0.2356 0.1423 0.0100 Uiso
O1U O -0.2356 0.6910 -0.1423 0.0100 Uiso
O1L O -0.0734 0.6910 0.1423 0.0100 Uiso
O1P O -0.2356 0.0734 0.1423 0.0100 Uiso
O1F_2 O 0.7644 0.6910 -0.3577 0.0100 Uiso
O1U_2 O 0.7644 0.6910 -0.1423 0.0100 Uiso
O1A_2 O 0.7644 1.0734 0.3577 0.0100 Uiso
O1T_2 O 0.6910 0.9266 0.3577 0.0100 Uiso
O1P_2 O 0.7644 1.0734 0.1423 0.0100 Uiso
O1H_2 O 0.3090 1.0734 -0.3577 0.0100 Uiso
O1W_2 O 0.3090 1.0734 -0.1423 0.0100 Uiso
O1C_2 O -0.0734 0.6910 0.3577 0.0100 Uiso
O1V_2 O 0.0734 0.7644 0.3577 0.0100 Uiso
O1E_2 O 0.3090 0.2356 0.3577 0.0100 Uiso
O1R_2 O 0.2356 0.3090 0.3577 0.0100 Uiso
O1N_2 O 0.3090 0.2356 0.1423 0.0100 Uiso
O2B O 0.5895 0.6603 -0.1450 0.0100 Uiso
O2K O 0.5895 0.9292 0.1450 0.0100 Uiso
O2D O 0.3397 0.9292 -0.1450 0.0100 Uiso
O2G O 0.0708 0.6603 0.1450 0.0100 Uiso
O2I O 0.3397 0.4105 0.1450 0.0100 Uiso
O2J O -0.0708 0.3397 -0.3550 0.0100 Uiso
O2H O -0.5895 0.0708 -0.3550 0.0100 Uiso
O2E O -0.5895 0.3397 -0.6450 0.0100 Uiso
O2F O -0.3397 0.5895 -0.3550 0.0100 Uiso
O2C O -0.0708 0.5895 -0.6450 0.0100 Uiso
O2A O -0.3397 0.0708 -0.6450 0.0100 Uiso
O2O O 0.0708 0.4105 -0.3550 0.0100 Uiso
O2Q O 0.5895 0.6603 -0.3550 0.0100 Uiso
O2T O 0.5895 0.9292 -0.6450 0.0100 Uiso
O2M O 0.3397 0.9292 -0.3550 0.0100 Uiso
O2V O 0.0708 0.6603 -0.6450 0.0100 Uiso
O2R O 0.3397 0.4105 -0.6450 0.0100 Uiso
O2S O -0.0708 0.3397 -0.1450 0.0100 Uiso
O2W O -0.5895 0.0708 -0.1450 0.0100 Uiso
O2N O -0.5895 0.3397 0.1450 0.0100 Uiso
O2U O -0.3397 0.5895 -0.1450 0.0100 Uiso
O2L O -0.0708 0.5895 0.1450 0.0100 Uiso
O2P O -0.3397 0.0708 0.1450 0.0100 Uiso
O2F_2 O 0.6603 0.5895 -0.3550 0.0100 Uiso
O2U_2 O 0.6603 0.5895 -0.1450 0.0100 Uiso
O2A_2 O 0.6603 1.0708 0.3550 0.0100 Uiso
O2T_2 O 0.5895 0.9292 0.3550 0.0100 Uiso
O2P_2 O 0.6603 1.0708 0.1450 0.0100 Uiso
O2H_2 O 0.4105 1.0708 -0.3550 0.0100 Uiso
O2W_2 O 0.4105 1.0708 -0.1450 0.0100 Uiso
O2C_2 O -0.0708 0.5895 0.3550 0.0100 Uiso
O2V_2 O 0.0708 0.6603 0.3550 0.0100 Uiso
O2E_2 O 0.4105 0.3397 0.3550 0.0100 Uiso
O2R_2 O 0.3397 0.4105 0.3550 0.0100 Uiso
O2N_2 O 0.4105 0.3397 0.1450 0.0100 Uiso
H1I H 0.3331 0.5072 0.0960 0.0200 Uiso
H1K H 0.4928 0.8259 0.0960 0.0200 Uiso
H1B H 0.4928 0.6669 -0.0960 0.0200 Uiso
H1G H 0.1741 0.6669 0.0960 0.0200 Uiso
H1D H 0.3331 0.8259 -0.0960 0.0200 Uiso
H1J H -0.1741 0.3331 -0.4040 0.0200 Uiso
H1A H -0.3331 0.1741 -0.5960 0.0200 Uiso
H1E H -0.4928 0.3331 -0.5960 0.0200 Uiso
H1H H -0.4928 0.1741 -0.4040 0.0200 Uiso
H1C H -0.1741 0.4928 -0.5960 0.0200 Uiso
H1F H -0.3331 0.4928 -0.4040 0.0200 Uiso
H1O H 0.1741 0.5072 -0.4040 0.0200 Uiso
H1R H 0.3331 0.5072 -0.5960 0.0200 Uiso
H1T H 0.4928 0.8259 -0.5960 0.0200 Uiso
H1Q H 0.4928 0.6669 -0.4040 0.0200 Uiso
H1V H 0.1741 0.6669 -0.5960 0.0200 Uiso
H1M H 0.3331 0.8259 -0.4040 0.0200 Uiso
H1S H -0.1741 0.3331 -0.0960 0.0200 Uiso
H1P H -0.3331 0.1741 0.0960 0.0200 Uiso
H1N H -0.4928 0.3331 0.0960 0.0200 Uiso
H1W H -0.4928 0.1741 -0.0960 0.0200 Uiso
H1L H -0.1741 0.4928 0.0960 0.0200 Uiso
H1U H -0.3331 0.4928 -0.0960 0.0200 Uiso
Cu1B Cu 0.6209 0.6209 -0.2500 0.0100 Uiso
Cu1A Cu 0.6209 1.0000 0.2500 0.0100 Uiso
Cu1D Cu 0.3791 1.0000 -0.2500 0.0100 Uiso
Cu1C Cu 0.0000 0.6209 0.2500 0.0100 Uiso
Cu1E Cu 0.3791 0.3791 0.2500 0.0100 Uiso
Cu1D_2 Cu -0.6209 0.0000 -0.2500 0.0100 Uiso
Cu1E_2 Cu -0.6209 0.3791 -0.7500 0.0100 Uiso
Cu1B_2 Cu -0.3791 0.6209 -0.2500 0.0100 Uiso
Cu1C_2 Cu -0.0000 0.6209 -0.7500 0.0100 Uiso
Cu1A_2 Cu -0.3791 0.0000 -0.7500 0.0100 Uiso
Cu1A_3 Cu 0.6209 1.0000 -0.7500 0.0100 Uiso
Cu1E_3 Cu 0.3791 0.3791 -0.7500 0.0100 Uiso
Cu1E_4 Cu -0.6209 0.3791 0.2500 0.0100 Uiso
Cu1A_4 Cu -0.3791 -0.0000 0.2500 0.0100 Uiso
Cu2B Cu 0.7313 0.7313 -0.2500 0.0100 Uiso
Cu2A Cu 0.7313 1.0000 0.2500 0.0100 Uiso
Cu2D Cu 0.2687 1.0000 -0.2500 0.0100 Uiso
Cu2C Cu -0.0000 0.7313 0.2500 0.0100 Uiso
Cu2E Cu 0.2687 0.2687 0.2500 0.0100 Uiso
Cu2D_2 Cu -0.7313 0.0000 -0.2500 0.0100 Uiso
Cu2E_2 Cu -0.7313 0.2687 -0.7500 0.0100 Uiso
Cu2B_2 Cu -0.2687 0.7313 -0.2500 0.0100 Uiso
Cu2C_2 Cu -0.0000 0.7313 -0.7500 0.0100 Uiso
Cu2A_2 Cu -0.2687 0.0000 -0.7500 0.0100 Uiso
Cu2A_3 Cu 0.7313 1.0000 -0.7500 0.0100 Uiso
Cu2E_3 Cu 0.2687 0.2687 -0.7500 0.0100 Uiso
Cu2E_4 Cu -0.7313 0.2687 0.2500 0.0100 Uiso
Cu2A_4 Cu -0.2687 -0.0000 0.2500 0.0100 Uiso
C4B C 0.4062 0.7031 0.0000 0.0100 Uiso
C4D C 0.2969 0.7031 0.0000 0.0100 Uiso
C4A C -0.2969 0.2969 -0.5000 0.0100 Uiso
C4E C -0.4062 0.2969 -0.5000 0.0100 Uiso
C4C C -0.2969 0.4062 -0.5000 0.0100 Uiso
C4O C 0.2969 0.5938 -0.5000 0.0100 Uiso
C4Q C 0.4062 0.7031 -0.5000 0.0100 Uiso
C4M C 0.2969 0.7031 -0.5000 0.0100 Uiso
C4P C -0.2969 0.2969 0.0000 0.0100 Uiso
C4N C -0.4062 0.2969 0.0000 0.0100 Uiso
C4L C -0.2969 0.4062 0.0000 0.0100 Uiso
C5B C 0.4825 0.7413 0.0000 0.0100 Uiso
C5D C 0.2587 0.7412 0.0000 0.0100 Uiso
C5J C -0.2588 0.2587 -0.5000 0.0100 Uiso
C5H C -0.4825 0.2588 -0.5000 0.0100 Uiso
C5F C -0.2587 0.4825 -0.5000 0.0100 Uiso
C5O C 0.2588 0.5175 -0.5000 0.0100 Uiso
C5Q C 0.4825 0.7413 -0.5000 0.0100 Uiso
C5M C 0.2587 0.7412 -0.5000 0.0100 Uiso
C5S C -0.2588 0.2587 0.0000 0.0100 Uiso
C5W C -0.4825 0.2588 0.0000 0.0100 Uiso
C5U C -0.2587 0.4825 0.0000 0.0100 Uiso
C6B C 0.6293 0.8147 0.0000 0.0100 Uiso
C6D C 0.1853 0.8146 0.0000 0.0100 Uiso
C6J C -0.1854 0.1853 -0.5000 0.0100 Uiso
C6H C -0.6293 0.1854 -0.5000 0.0100 Uiso
C6F C -0.1853 0.6293 -0.5000 0.0100 Uiso
C6O C 0.1854 0.3707 -0.5000 0.0100 Uiso
C6Q C 0.6293 0.8147 -0.5000 0.0100 Uiso
C6M C 0.1853 0.8146 -0.5000 0.0100 Uiso
C6S C -0.1854 0.1853 0.0000 0.0100 Uiso
C6W C -0.6293 0.1854 0.0000 0.0100 Uiso
C6U C -0.1853 0.6293 0.0000 0.0100 Uiso
H2B H 0.6857 0.8429 0.000 0.0200 Uiso
H2D H 0.1571 0.8428 0.000 0.0200 Uiso
H2J H -0.1572 0.1571 -0.500 0.0200 Uiso
H2H H -0.6857 0.1572 -0.500 0.0200 Uiso
H2F H -0.1571 0.6857 -0.500 0.0200 Uiso
H2O H 0.1572 0.3143 -0.500 0.0200 Uiso
H2Q H 0.6857 0.8429 -0.500 0.0200 Uiso
H2M H 0.1571 0.8428 -0.500 0.0200 Uiso
H2S H -0.1572 0.1571 0.000 0.0200 Uiso
H2W H -0.6857 0.1572 0.000 0.0200 Uiso
H2U H -0.1571 0.6857 0.000 0.0200 Uiso
C7B C 0.3694 0.7388 0.0000 0.0100 Uiso
C7D C 0.2612 0.6306 0.0000 0.0100 Uiso
C7E C -0.3694 0.2612 -0.5000 0.0100 Uiso
C7C C -0.3694 0.3694 -0.5000 0.0100 Uiso
C7A C -0.2612 0.3694 -0.5000 0.0100 Uiso
C7O C 0.3694 0.6306 -0.5000 0.0100 Uiso
C7Q C 0.3694 0.7388 -0.5000 0.0100 Uiso
C7M C 0.2612 0.6306 -0.5000 0.0100 Uiso
C7N C -0.3694 0.2612 0.0000 0.0100 Uiso
C7L C -0.3694 0.3694 0.0000 0.0100 Uiso
C7P C -0.2612 0.3694 0.0000 0.0100 Uiso
H3D H 0.2046 0.6023 0.000 0.0200 Uiso
H3B H 0.3977 0.7954 0.000 0.0200 Uiso
H3E H -0.3977 0.2046 -0.500 0.0200 Uiso
H3A H -0.2046 0.3977 -0.500 0.0200 Uiso
H3C H -0.3977 0.3977 -0.500 0.0200 Uiso
H3O H 0.3977 0.6023 -0.500 0.0200 Uiso
H3M H 0.2046 0.6023 -0.500 0.0200 Uiso
H3Q H 0.3977 0.7954 -0.500 0.0200 Uiso
H3N H -0.3977 0.2046 0.000 0.0200 Uiso
H3P H -0.2046 0.3977 0.000 0.0200 Uiso
H3L H -0.3977 0.3977 0.000 0.0200 Uiso
loop_
_geom_bond_atom_site_label_1
_geom_bond_atom_site_label_2
_geom_bond_site_symmetry_1
_geom_bond_site_symmetry_2
C1 C3 1_555 1_555
C2 C3 1_555 1_555
C3 C6 1_555 1_555
O1 C2 1_555 1_555
O2 C2 1_555 1_555
H1 C1 1_555 1_555
Cu1 O2 1_555 1_555
Cu2 O1 1_555 1_555
C4 C5 1_555 1_555
C5 C1 1_555 1_555
C6 H2 1_555 1_555
C7 C4 1_555 1_555
H3 C7 1_555 1_555
C1I C5 1_555 1_555
C1B C3B 1_555 1_555
C1K C3K 1_555 1_555
C1D C3D 1_555 1_555
C1G C3G 1_555 1_555
C1J C3J 1_555 1_555
C1A C3A 1_555 1_555
C1H C3H 1_555 1_555
C1E C3E 1_555 1_555
C1F C3F 1_555 1_555
C1C C3C 1_555 1_555
C1O C3O 1_555 1_555
C1R C3R 1_555 1_555
C1Q C3Q 1_555 1_555
C1T C3T 1_555 1_555
C1M C3M 1_555 1_555
C1V C3V 1_555 1_555
C1S C3S 1_555 1_555
C1P C3P 1_555 1_555
C1W C3W 1_555 1_555
C1N C3N 1_555 1_555
C1U C3U 1_555 1_555
C1L C3L 1_555 1_555
C2B C3B 1_555 1_555
C2K C3K 1_555 1_555
C2D C3D 1_555 1_555
C2G C3G 1_555 1_555
C2I C3I 1_555 1_555
C2J C3J 1_555 1_555
C2H C3H 1_555 1_555
C2E C3E 1_555 1_555
C2F C3F 1_555 1_555
C2C C3C 1_555 1_555
C2A C3A 1_555 1_555
C2O C3O 1_555 1_555
C2Q C3Q 1_555 1_555
C2T C3T 1_555 1_555
C2M C3M 1_555 1_555
C2V C3V 1_555 1_555
C2R C3R 1_555 1_555
C2S C3S 1_555 1_555
C2W C3W 1_555 1_555
C2N C3N 1_555 1_555
C2U C3U 1_555 1_555
C2L C3L 1_555 1_555
C2P C3P 1_555 1_555
C3I C6 1_555 1_555
C3B C6B 1_555 1_555
C3K C6B 1_555 1_555
C3D C6D 1_555 1_555
C3G C6D 1_555 1_555
C3J C6J 1_555 1_555
C3A C6J 1_555 1_555
C3H C6H 1_555 1_555
C3E C6H 1_555 1_555
C3F C6F 1_555 1_555
C3C C6F 1_555 1_555
C3O C6O 1_555 1_555
C3R C6O 1_555 1_555
C3Q C6Q 1_555 1_555
C3T C6Q 1_555 1_555
C3M C6M 1_555 1_555
C3V C6M 1_555 1_555
C3S C6S 1_555 1_555
C3P C6S 1_555 1_555
C3W C6W 1_555 1_555
C3N C6W 1_555 1_555
C3U C6U 1_555 1_555
C3L C6U 1_555 1_555
O1B C2B 1_555 1_555
O1K C2K 1_555 1_555
O1D C2D 1_555 1_555
O1G C2G 1_555 1_555
O1I C2I 1_555 1_555
O1J Cu2 1_555 1_555
O1H C2H 1_555 1_555
O1E C2E 1_555 1_555
O1F C2F 1_555 1_555
O1C C2C 1_555 1_555
O1A C2A 1_555 1_555
O1O Cu2 1_555 1_555
O1Q C2Q 1_555 1_555
O1T C2T 1_555 1_555
O1M C2M 1_555 1_555
O1V C2V 1_555 1_555
O1R C2R 1_555 1_555
O1S Cu2 1_555 1_555
O1W C2W 1_555 1_555
O1N C2N 1_555 1_555
O1U C2U 1_555 1_555
O1L C2L 1_555 1_555
O1P C2P 1_555 1_555
O1F_2 Cu2B 1_555 1_555
O1U_2 Cu2B 1_555 1_555
O1A_2 Cu2A 1_555 1_555
O1T_2 Cu2A 1_555 1_555
O1P_2 Cu2A 1_555 1_555
O1H_2 Cu2D 1_555 1_555
O1W_2 Cu2D 1_555 1_555
O1C_2 Cu2C 1_555 1_555
O1V_2 Cu2C 1_555 1_555
O1E_2 Cu2E 1_555 1_555
O1R_2 Cu2E 1_555 1_555
O1N_2 Cu2E 1_555 1_555
O2B C2B 1_555 1_555
O2K C2K 1_555 1_555
O2D C2D 1_555 1_555
O2G C2G 1_555 1_555
O2I C2I 1_555 1_555
O2J Cu1 1_555 1_555
O2H C2H 1_555 1_555
O2E C2E 1_555 1_555
O2F C2F 1_555 1_555
O2C C2C 1_555 1_555
O2A C2A 1_555 1_555
O2O Cu1 1_555 1_555
O2Q C2Q 1_555 1_555
O2T C2T 1_555 1_555
O2M C2M 1_555 1_555
O2V C2V 1_555 1_555
O2R C2R 1_555 1_555
O2S Cu1 1_555 1_555
O2W C2W 1_555 1_555
O2N C2N 1_555 1_555
O2U C2U 1_555 1_555
O2L C2L 1_555 1_555
O2P C2P 1_555 1_555
O2F_2 Cu1B 1_555 1_555
O2U_2 Cu1B 1_555 1_555
O2A_2 Cu1A 1_555 1_555
O2T_2 Cu1A 1_555 1_555
O2P_2 Cu1A 1_555 1_555
O2H_2 Cu1D 1_555 1_555
O2W_2 Cu1D 1_555 1_555
O2C_2 Cu1C 1_555 1_555
O2V_2 Cu1C 1_555 1_555
O2E_2 Cu1E 1_555 1_555
O2R_2 Cu1E 1_555 1_555
O2N_2 Cu1E 1_555 1_555
H1I C1I 1_555 1_555
H1K C1K 1_555 1_555
H1B C1B 1_555 1_555
H1G C1G 1_555 1_555
H1D C1D 1_555 1_555
H1J C1J 1_555 1_555
H1A C1A 1_555 1_555
H1E C1E 1_555 1_555
H1H C1H 1_555 1_555
H1C C1C 1_555 1_555
H1F C1F 1_555 1_555
H1O C1O 1_555 1_555
H1R C1R 1_555 1_555
H1T C1T 1_555 1_555
H1Q C1Q 1_555 1_555
H1V C1V 1_555 1_555
H1M C1M 1_555 1_555
H1S C1S 1_555 1_555
H1P C1P 1_555 1_555
H1N C1N 1_555 1_555
H1W C1W 1_555 1_555
H1L C1L 1_555 1_555
H1U C1U 1_555 1_555
Cu1B O2B 1_555 1_555
Cu1A O2K 1_555 1_555
Cu1D O2D 1_555 1_555
Cu1C O2G 1_555 1_555
Cu1E O2I 1_555 1_555
Cu1D_2 O2H 1_555 1_555
Cu1E_2 O2E 1_555 1_555
Cu1B_2 O2F 1_555 1_555
Cu1C_2 O2C 1_555 1_555
Cu1A_2 O2A 1_555 1_555
Cu1A_3 O2T 1_555 1_555
Cu1E_3 O2R 1_555 1_555
Cu1E_4 O2N 1_555 1_555
Cu1A_4 O2P 1_555 1_555
Cu2B O1B 1_555 1_555
Cu2A O1K 1_555 1_555
Cu2D O1D 1_555 1_555
Cu2C O1G 1_555 1_555
Cu2E O1I 1_555 1_555
Cu2D_2 O1H 1_555 1_555
Cu2E_2 O1E 1_555 1_555
Cu2B_2 O1F 1_555 1_555
Cu2C_2 O1C 1_555 1_555
Cu2A_2 O1A 1_555 1_555
Cu2A_3 O1T 1_555 1_555
Cu2E_3 O1R 1_555 1_555
Cu2E_4 O1N 1_555 1_555
Cu2A_4 O1P 1_555 1_555
C4B C7 1_555 1_555
C4D C5D 1_555 1_555
C4A C5J 1_555 1_555
C4E C5H 1_555 1_555
C4C C5F 1_555 1_555
C4O C5O 1_555 1_555
C4Q C5Q 1_555 1_555
C4M C5M 1_555 1_555
C4P C5S 1_555 1_555
C4N C5W 1_555 1_555
C4L C5U 1_555 1_555
C5B C1B 1_555 1_555
C5D C1D 1_555 1_555
C5J C1J 1_555 1_555
C5H C1H 1_555 1_555
C5F C1F 1_555 1_555
C5O C1O 1_555 1_555
C5Q C1Q 1_555 1_555
C5M C1M 1_555 1_555
C5S C1S 1_555 1_555
C5W C1W 1_555 1_555
C5U C1U 1_555 1_555
C6B H2B 1_555 1_555
C6D H2D 1_555 1_555
C6J H2J 1_555 1_555
C6H H2H 1_555 1_555
C6F H2F 1_555 1_555
C6O H2O 1_555 1_555
C6Q H2Q 1_555 1_555
C6M H2M 1_555 1_555
C6S H2S 1_555 1_555
C6W H2W 1_555 1_555
C6U H2U 1_555 1_555
C7B C4B 1_555 1_555
C7D C4 1_555 1_555
C7E C4A 1_555 1_555
C7C C4E 1_555 1_555
C7A C4A 1_555 1_555
C7O C4O 1_555 1_555
C7Q C4Q 1_555 1_555
C7M C4O 1_555 1_555
C7N C4P 1_555 1_555
C7L C4N 1_555 1_555
C7P C4P 1_555 1_555
H3D C7D 1_555 1_555
H3B C7B 1_555 1_555
H3E C7E 1_555 1_555
H3A C7A 1_555 1_555
H3C C7C 1_555 1_555
H3O C7O 1_555 1_555
H3M C7M 1_555 1_555
H3Q C7Q 1_555 1_555
H3N C7N 1_555 1_555
H3P C7P 1_555 1_555
H3L C7L 1_555 1_555
C1I C3I 1_555 1_555
C1K C5B 1_555 1_555
C1G C5D 1_555 1_555
C1A C5J 1_555 1_555
C1E C5H 1_555 1_555
C1C C5F 1_555 1_555
C1R C5O 1_555 1_555
C1T C5Q 1_555 1_555
C1V C5M 1_555 1_555
C1P C5S 1_555 1_555
C1N C5W 1_555 1_555
C1L C5U 1_555 1_555
C2J O1J 1_555 1_555
C2J O2J 1_555 1_555
C2O O1O 1_555 1_555
C2O O2O 1_555 1_555
C2S O1S 1_555 1_555
C2S O2S 1_555 1_555
O1Q Cu2B 1_555 1_555
O1M Cu2D 1_555 1_555
O1V Cu2C_2 1_555 1_555
O1W Cu2D_2 1_555 1_555
O1U Cu2B_2 1_555 1_555
O1L Cu2C 1_555 1_555
O2Q Cu1B 1_555 1_555
O2M Cu1D 1_555 1_555
O2V Cu1C_2 1_555 1_555
O2W Cu1D_2 1_555 1_555
O2U Cu1B_2 1_555 1_555
O2L Cu1C 1_555 1_555
C4B C5B 1_555 1_555
C4D C7B 1_555 1_555
C4D C7D 1_555 1_555
C4E C7E 1_555 1_555
C4C C7C 1_555 1_555
C4C C7A 1_555 1_555
C4Q C7O 1_555 1_555
C4M C7Q 1_555 1_555
C4M C7M 1_555 1_555
C4N C7N 1_555 1_555
C4L C7L 1_555 1_555
C4L C7P 1_555 1_555

#END
