
#######################################################################
#
#                 Cambridge Crystallographic Data Centre
#                                CCDC 
#
#######################################################################
#
# If this CIF has been generated from an entry in the Cambridge 
# Structural Database, then it will include bibliographic, chemical, 
# crystal, experimental, refinement or atomic coordinate data resulting 
# from the CCDC's data processing and validation procedures.
#
#######################################################################

data_LELCUB01
_chemical_formula_moiety         '(C120 H144 Cu24 N48)n'
_symmetry_cell_setting           orthorhombic
_symmetry_space_group_name_H-M   'C c c a'
_symmetry_Int_Tables_number      68
_space_group_name_Hall           '-C 2a 2ac'
loop_
_symmetry_equiv_pos_site_id
_symmetry_equiv_pos_as_xyz
1 x,y,z
2 1/2+x,1/2+y,z
3 1/2-x,-y,z
4 -x,y,1/2-z
5 1/2+x,-y,1/2-z
6 -x,1/2-y,z
7 1/2-x,1/2+y,1/2-z
8 x,1/2-y,1/2-z
9 -x,-y,-z
10 1/2-x,1/2-y,-z
11 1/2+x,y,-z
12 x,-y,1/2+z
13 1/2-x,y,1/2+z
14 x,1/2+y,-z
15 1/2+x,1/2-y,1/2+z
16 -x,1/2+y,1/2+z
_cell_length_a                   18.5370(19)
_cell_length_b                   46.211(5)
_cell_length_c                   34.925(4)
_cell_angle_alpha                90
_cell_angle_beta                 90
_cell_angle_gamma                90
_cell_volume                     29917.2
loop_
_atom_site_label
_atom_site_type_symbol
_atom_site_fract_x
_atom_site_fract_y
_atom_site_fract_z
Cu1 Cu 0.53519(3) 0.042178(15) 0.044808(17)
Cu2 Cu 0.51403(3) 0.023770(15) -0.043841(17)
Cu3 Cu 0.40265(4) 0.066553(16) -0.000390(17)
Cu4 Cu 0.30153(3) 0.152750(13) 0.227710(16)
Cu5 Cu 0.33313(3) 0.152582(13) -0.220021(17)
Cu6 Cu 0.22449(3) 0.092150(13) 0.242970(16)
N1 N 0.6081(2) 0.02405(10) 0.01815(11)
N2 N 0.5976(2) 0.01323(9) -0.01807(11)
N3 N 0.4419(2) 0.04234(10) -0.07145(11)
N4 N 0.3981(2) 0.06216(10) -0.05273(11)
N5 N 0.3539(2) 0.11728(8) -0.19782(11)
N6 N 0.3294(2) 0.09122(8) -0.21240(11)
N7 N 0.2016(2) 0.18833(9) 0.26474(11)
N8 N 0.2665(2) 0.18781(8) 0.24583(11)
N9 N 0.3266(2) 0.12054(8) 0.19903(11)
N10 N 0.2885(2) 0.09512(8) 0.20196(11)
N11 N 0.4658(2) 0.06245(9) 0.07176(11)
N12 N 0.4087(2) 0.07361(10) 0.05163(11)
C1 C 0.7043(3) 0.03001(15) 0.06595(15)
H1 H 0.6829 0.0490 0.0715
H2 H 0.7569 0.0318 0.0651
H3 H 0.6906 0.0163 0.0861
C2 C 0.6771(3) 0.01927(12) 0.02795(14)
C3 C 0.7122(3) 0.00499(11) -0.00158(13)
C4 C 0.6599(2) 0.00179(11) -0.03022(13)
C5 C 0.6655(3) -0.01067(12) -0.06968(14)
H4 H 0.6185 -0.0095 -0.0824
H5 H 0.6806 -0.0310 -0.0680
H6 H 0.7012 0.0003 -0.0845
C6 C 0.4777(3) 0.02960(13) -0.13707(14)
H7 H 0.5215 0.0223 -0.1247
H8 H 0.4911 0.0417 -0.1590
H9 H 0.4483 0.0133 -0.1459
C7 C 0.4357(3) 0.04709(11) -0.10919(13)
C8 C 0.3877(3) 0.06976(11) -0.11575(13)
C9 C 0.3653(3) 0.07859(12) -0.07936(13)
C10 C 0.3126(3) 0.10128(14) -0.06796(15)
H10 H 0.2816 0.0938 -0.0475
H11 H 0.2830 0.1066 -0.0901
H12 H 0.3387 0.1184 -0.0588
C11 C 0.4073(3) 0.13702(12) -0.13899(15)
H13 H 0.4407 0.1483 -0.1549
H14 H 0.4332 0.1293 -0.1168
H15 H 0.3679 0.1495 -0.1302
C12 C 0.3773(3) 0.11268(11) -0.16192(13)
C13 C 0.3693(2) 0.08355(11) -0.15248(13)
C14 C 0.3391(2) 0.07076(10) -0.18525(13)
C15 C 0.3204(3) 0.04003(10) -0.19227(15)
H16 H 0.2844 0.0388 -0.2127
H17 H 0.3007 0.0315 -0.1688
H18 H 0.3639 0.0294 -0.1999
C16 C 0.1139(3) 0.22396(12) 0.28973(15)
H19 H 0.0974 0.2073 0.3047
H20 H 0.1234 0.2403 0.3069
H21 H 0.0765 0.2294 0.2712
C17 C 0.1816(3) 0.21617(10) 0.26883(13)
C18 C 0.2325(2) 0.23415(9) 0.25143(13)
C19 C 0.2852(2) 0.21506(10) 0.23775(12)
C20 C 0.3536(3) 0.22183(11) 0.21697(14)
H22 H 0.3586 0.2088 0.1950
H23 H 0.3524 0.2419 0.2081
H24 H 0.3946 0.2192 0.2343
C21 C 0.4172(3) 0.14283(12) 0.15578(15)
H25 H 0.4125 0.1590 0.1738
H26 H 0.4670 0.1358 0.1559
H27 H 0.4044 0.1494 0.1300
C22 C 0.3679(3) 0.11900(11) 0.16745(13)
C23 C 0.3567(2) 0.09242(10) 0.14951(12)
C24 C 0.3066(3) 0.07783(10) 0.17246(13)
C25 C 0.2757(3) 0.04841(11) 0.16719(15)
H28 H 0.2542 0.0418 0.1913
H29 H 0.2386 0.0490 0.1472
H30 H 0.3141 0.0350 0.1595
C26 C 0.5082(3) 0.05903(13) 0.13894(14)
H31 H 0.5453 0.0467 0.1274
H32 H 0.5308 0.0763 0.1499
H33 H 0.4834 0.0483 0.1592
C27 C 0.4553(3) 0.06777(11) 0.10918(13)
C28 C 0.3899(2) 0.08225(11) 0.11375(12)
C29 C 0.3626(3) 0.08568(12) 0.07668(14)
C30 C 0.2940(3) 0.09943(17) 0.06379(16)
H34 H 0.3009 0.1081 0.0384
H35 H 0.2559 0.0847 0.0624
H36 H 0.2799 0.1145 0.0820
Cu1B Cu 0.96481(3) -0.042178(15) 0.044808(17)
Cu2B Cu 0.98597(3) -0.023770(15) -0.043841(17)
Cu2L Cu -0.01403(3) 0.023770(15) 0.456159(17)
Cu3L Cu 0.09735(4) 0.066553(16) 0.499610(17)
Cu3B Cu 1.09735(4) -0.066553(16) -0.000390(17)
Cu4G Cu 0.30153(3) 0.347250(13) 0.272290(16)
Cu4B Cu 1.19847(3) -0.152750(13) 0.227710(16)
Cu5L Cu 0.16687(3) 0.152582(13) 0.279979(17)
Cu5I Cu 0.16687(3) 0.347418(13) 0.220021(17)
Cu6L Cu 0.27551(3) 0.092150(13) -0.257030(16)
Cu6B Cu 1.27551(3) -0.092150(13) 0.242970(16)
N1B N 0.8919(2) -0.02405(10) 0.01815(11)
N2B N 0.9024(2) -0.01323(9) -0.01807(11)
N3L N 0.0581(2) 0.04234(10) 0.42855(11)
N3B N 1.0581(2) -0.04234(10) -0.07145(11)
N4L N 0.1019(2) 0.06216(10) 0.44727(11)
N4B N 1.1019(2) -0.06216(10) -0.05273(11)
N5L N 0.1461(2) 0.11728(8) 0.30218(11)
N6L N 0.1706(2) 0.09122(8) 0.28760(11)
N6K N 1.3294(2) -0.09122(8) 0.28760(11)
N7G N 0.2016(2) 0.31167(9) 0.23526(11)
N7L N 0.2984(2) 0.18833(9) -0.23526(11)
N8G N 0.2665(2) 0.31219(8) 0.25417(11)
N8B N 1.2335(2) -0.18781(8) 0.24583(11)
N9B N 1.1734(2) -0.12054(8) 0.19903(11)
N10B N 1.2115(2) -0.09512(8) 0.20196(11)
N11B N 1.0342(2) -0.06245(9) 0.07176(11)
N12B N 1.0913(2) -0.07361(10) 0.05163(11)
C1B C 0.7957(3) -0.03001(15) 0.06595(15)
H1B H 0.8171 -0.0490 0.0715
H2B H 0.7431 -0.0318 0.0651
H3B H 0.8094 -0.0163 0.0861
C2B C 0.8229(3) -0.01927(12) 0.02795(14)
C3B C 0.7878(3) -0.00499(11) -0.00158(13)
C4B C 0.8401(2) -0.00179(11) -0.03022(13)
C5B C 0.8345(3) 0.01067(12) -0.06968(14)
H4B H 0.8815 0.0095 -0.0824
H5B H 0.8194 0.0310 -0.0680
H6B H 0.7988 -0.0003 -0.0845
C6L C 0.0223(3) 0.02960(13) 0.36293(14)
H7L H -0.0215 0.0223 0.3753
H8L H 0.0089 0.0417 0.3410
H9L H 0.0517 0.0133 0.3541
C7L C 0.0643(3) 0.04709(11) 0.39081(13)
C8L C 0.1123(3) 0.06976(11) 0.38425(13)
C9L C 0.1347(3) 0.07859(12) 0.42064(13)
C10L C 0.1874(3) 0.10128(14) 0.43204(15)
H10L H 0.2184 0.0938 0.4525
H11L H 0.2170 0.1066 0.4099
H12L H 0.1613 0.1184 0.4412
C11L C 0.0927(3) 0.13702(12) 0.36101(15)
H13L H 0.0593 0.1483 0.3451
H14L H 0.0668 0.1293 0.3832
H15L H 0.1321 0.1495 0.3698
C12L C 0.1227(3) 0.11268(11) 0.33808(13)
C13L C 0.1307(2) 0.08355(11) 0.34752(13)
C14L C 0.1609(2) 0.07076(10) 0.31475(13)
C15L C 0.1796(3) 0.04003(10) 0.30773(15)
H16L H 0.2156 0.0388 0.2873
H17L H 0.1993 0.0315 0.3312
H18L H 0.1361 0.0294 0.3001
C16G C 0.1139(3) 0.27604(12) 0.21027(15)
H19G H 0.0974 0.2927 0.1953
H20G H 0.1234 0.2597 0.1931
H21G H 0.0765 0.2706 0.2288
C17G C 0.1816(3) 0.28383(10) 0.23117(13)
C18G C 0.2325(2) 0.26585(9) 0.24857(13)
C19G C 0.2852(2) 0.28494(10) 0.26225(12)
C20G C 0.3536(3) 0.27817(11) 0.28303(14)
H22G H 0.3586 0.2912 0.3050
H23G H 0.3524 0.2581 0.2919
H24G H 0.3946 0.2808 0.2657
C21B C 1.0828(3) -0.14283(12) 0.15578(15)
H25B H 1.0875 -0.1590 0.1738
H26B H 1.0330 -0.1358 0.1559
H27B H 1.0956 -0.1494 0.1300
C22B C 1.1321(3) -0.11900(11) 0.16745(13)
C23B C 1.1433(2) -0.09242(10) 0.14951(12)
C24B C 1.1934(3) -0.07783(10) 0.17246(13)
C25B C 1.2243(3) -0.04841(11) 0.16719(15)
H28B H 1.2458 -0.0418 0.1913
H29B H 1.2614 -0.0490 0.1472
H30B H 1.1859 -0.0350 0.1595
C26B C 0.9918(3) -0.05903(13) 0.13894(14)
H31B H 0.9547 -0.0467 0.1274
H32B H 0.9692 -0.0763 0.1499
H33B H 1.0166 -0.0483 0.1592
C27B C 1.0447(3) -0.06777(11) 0.10918(13)
C28B C 1.1101(2) -0.08225(11) 0.11375(12)
C29B C 1.1374(3) -0.08568(12) 0.07668(14)
C30B C 1.2060(3) -0.09943(17) 0.06379(16)
H34B H 1.1991 -0.1081 0.0384
H35B H 1.2441 -0.0847 0.0624
H36B H 1.2201 -0.1145 0.0820
Cu7 Cu 0.65912(4) 0.180306(18) 0.000259(17)
Cu8 Cu 0.78421(3) 0.206957(16) -0.048176(17)
Cu9 Cu 0.76640(3) 0.226823(16) 0.039813(17)
Cu10 Cu 0.57454(3) 0.110308(13) 0.228441(17)
Cu11 Cu 0.55325(4) 0.083928(13) -0.217457(17)
Cu12 Cu 0.5000 0.146674(18) -0.2500
Cu13 Cu 0.5000 0.169912(18) 0.2500
N13 N 0.6014(2) 0.14374(9) 0.20339(11)
N14 N 0.5631(2) 0.16911(8) 0.20961(11)
N15 N 0.6564(2) 0.18658(11) 0.05232(11)
N16 N 0.6973(2) 0.20804(10) 0.06907(12)
N17 N 0.8577(2) 0.22606(10) -0.02328(11)
N18 N 0.8473(2) 0.23780(10) 0.01268(11)
N19 N 0.6616(2) 0.17253(11) -0.05172(11)
N20 N 0.7142(2) 0.18555(10) -0.07321(11)
N21 N 0.5706(2) 0.11787(9) -0.19118(11)
N22 N 0.5569(2) 0.14514(8) -0.20573(11)
N23 N 0.5289(2) 0.04834(9) -0.23791(11)
N24 N 0.4649(2) -0.07557(9) -0.24347(11)
C31 C 0.6803(3) 0.12195(12) 0.15421(16)
H37 H 0.6977 0.1102 0.1756
H38 H 0.7216 0.1301 0.1403
H39 H 0.6518 0.1099 0.1369
C32 C 0.6345(3) 0.14595(11) 0.16914(13)
C33 C 0.6187(2) 0.17258(10) 0.15300(13)
C34 C 0.5740(2) 0.18645(10) 0.17918(13)
C35 C 0.5378(3) 0.21503(10) 0.17603(14)
H40 H 0.5303 0.2230 0.2017
H41 H 0.4912 0.2127 0.1632
H42 H 0.5682 0.2282 0.1611
C36 C 0.5740(4) 0.14675(15) 0.07113(16)
H43 H 0.6030 0.1294 0.0666
H44 H 0.5457 0.1512 0.0482
H45 H 0.5414 0.1434 0.0928
C37 C 0.6227(3) 0.17166(13) 0.08002(14)
C38 C 0.6422(2) 0.18343(11) 0.11533(13)
C39 C 0.6895(3) 0.20576(12) 0.10711(13)
C40 C 0.7280(3) 0.22562(14) 0.13375(16)
H46 H 0.7765 0.2295 0.1239
H47 H 0.7316 0.2166 0.1591
H48 H 0.7013 0.2438 0.1358
C41 C 0.9538(3) 0.21940(15) -0.07077(16)
H49 H 0.9302 0.2009 -0.0767
H50 H 1.0060 0.2165 -0.0690
H51 H 0.9432 0.2334 -0.0911
C42 C 0.9262(3) 0.23059(13) -0.03364(13)
C43 C 0.9617(3) 0.24536(11) -0.00437(13)
C44 C 0.9105(3) 0.24911(12) 0.02424(13)
C45 C 0.9167(3) 0.26249(13) 0.06305(15)
H52 H 0.8693 0.2696 0.0712
H53 H 0.9508 0.2787 0.0621
H54 H 0.9339 0.2480 0.0813
C46 C 0.5522(4) 0.14326(18) -0.05976(16)
H55 H 0.5625 0.1370 -0.0335
H56 H 0.5421 0.1263 -0.0758
H57 H 0.5102 0.1561 -0.0597
C47 C 0.6163(3) 0.15913(13) -0.07547(14)
C48 C 0.6395(3) 0.16245(11) -0.11302(13)
C49 C 0.7014(3) 0.17930(11) -0.11010(13)
C50 C 0.7501(3) 0.18978(13) -0.14090(14)
H58 H 0.7964 0.1955 -0.1297
H59 H 0.7281 0.2064 -0.1537
H60 H 0.7580 0.1743 -0.1596
C51 C 0.6211(4) 0.09502(13) -0.13337(17)
H61 H 0.6334 0.0790 -0.1506
H62 H 0.5803 0.0894 -0.1172
H63 H 0.6628 0.0996 -0.1172
C52 C 0.6012(3) 0.12100(11) -0.15639(13)
C53 C 0.6079(3) 0.15031(10) -0.14799(13)
C54 C 0.5798(3) 0.16435(11) -0.17980(13)
C55 C 0.5746(3) 0.19632(11) -0.18673(15)
H64 H 0.5360 0.2002 -0.2052
H65 H 0.6205 0.2034 -0.1970
H66 H 0.5640 0.2062 -0.1626
C56 C 0.6084(3) 0.01306(12) -0.20497(15)
H67 H 0.6133 0.0279 -0.1851
H68 H 0.6529 0.0121 -0.2200
H69 H 0.5994 -0.0058 -0.1930
C57 C 0.5471(3) 0.02059(10) -0.23048(13)
C58 C 0.5000 0.00214(15) -0.2500
C59 C 0.5000 -0.02968(14) -0.2500
C60 C 0.4439(3) -0.04798(10) -0.23921(13)
C61 C 0.3708(3) -0.04093(11) -0.22388(15)
H70 H 0.3600 -0.0536 -0.2021
H71 H 0.3347 -0.0438 -0.2440
H72 H 0.3698 -0.0207 -0.2154
Cu7C Cu 0.34088(4) 0.180306(18) -0.500259(17)
Cu7C_2 Cu 0.34088(4) 0.180306(18) 0.499741(17)
Cu8C Cu 0.21579(3) 0.206957(16) -0.451824(17)
Cu8E Cu 1.21579(3) 0.293043(16) -0.048176(17)
Cu9C Cu 0.23360(3) 0.226823(16) 0.460187(17)
Cu9E Cu 1.23360(3) 0.273177(16) 0.039813(17)
Cu10C Cu 0.42546(3) 0.110308(13) 0.271559(17)
Cu10H Cu 0.42546(3) -0.110308(13) -0.228441(17)
Cu10K Cu 0.57454(3) -0.110308(13) -0.271559(17)
Cu11C Cu 0.44675(4) 0.083928(13) -0.282543(17)
N13C N 0.3986(2) 0.14374(9) 0.29661(11)
N14C N 0.4369(2) 0.16911(8) 0.29039(11)
N15C N 0.3436(2) 0.18658(11) 0.44768(11)
N16C N 0.3027(2) 0.20804(10) 0.43093(12)
N17E N 1.1423(2) 0.27394(10) -0.02328(11)
N18E N 1.1527(2) 0.26220(10) 0.01268(11)
N18C N 0.1527(2) 0.23780(10) 0.48732(11)
N19C N 0.3384(2) 0.17253(11) -0.44828(11)
N19C_2 N 0.3384(2) 0.17253(11) 0.55172(11)
N20C N 0.2858(2) 0.18555(10) -0.42679(11)
N20E N 1.2858(2) 0.31445(10) -0.07321(11)
N21C N 0.4294(2) 0.11787(9) -0.30882(11)
N22C N 0.4431(2) 0.14514(8) -0.29427(11)
N23C N 0.4711(2) 0.04834(9) -0.26209(11)
N24C N 0.5351(2) -0.07557(9) -0.25653(11)
N24H N 0.5351(2) 0.07557(9) 0.24347(11)
N24K N 0.4649(2) 0.07557(9) 0.25653(11)
C31C C 0.3197(3) 0.12195(12) 0.34579(16)
H37C H 0.3023 0.1102 0.3244
H38C H 0.2784 0.1301 0.3597
H39C H 0.3482 0.1099 0.3631
C32C C 0.3655(3) 0.14595(11) 0.33086(13)
C33C C 0.3813(2) 0.17258(10) 0.34700(13)
C34C C 0.4260(2) 0.18645(10) 0.32082(13)
C35C C 0.4622(3) 0.21503(10) 0.32397(14)
H40C H 0.4697 0.2230 0.2983
H41C H 0.5088 0.2127 0.3368
H42C H 0.4318 0.2282 0.3389
C36C C 0.4260(4) 0.14675(15) 0.42887(16)
H43C H 0.3970 0.1294 0.4334
H44C H 0.4543 0.1512 0.4518
H45C H 0.4586 0.1434 0.4072
C37C C 0.3773(3) 0.17166(13) 0.41998(14)
C38C C 0.3578(2) 0.18343(11) 0.38467(13)
C39C C 0.3105(3) 0.20576(12) 0.39289(13)
C40C C 0.2720(3) 0.22562(14) 0.36625(16)
H46C H 0.2235 0.2295 0.3761
H47C H 0.2684 0.2166 0.3409
H48C H 0.2987 0.2438 0.3642
C41E C 1.0462(3) 0.28060(15) -0.07077(16)
H49E H 1.0698 0.2991 -0.0767
H50E H 0.9940 0.2835 -0.0690
H51E H 1.0568 0.2666 -0.0911
C42E C 1.0738(3) 0.26941(13) -0.03364(13)
C43E C 1.0383(3) 0.25464(11) -0.00437(13)
C44E C 1.0895(3) 0.25089(12) 0.02424(13)
C45E C 1.0833(3) 0.23751(13) 0.06305(15)
H52E H 1.1307 0.2304 0.0712
H53E H 1.0492 0.2213 0.0621
H54E H 1.0661 0.2520 0.0813
C46C C 0.4478(4) 0.14326(18) -0.44024(16)
H55C H 0.4375 0.1370 -0.4665
H56C H 0.4579 0.1263 -0.4242
H57C H 0.4898 0.1561 -0.4403
C47C C 0.3837(3) 0.15913(13) -0.42453(14)
C48C C 0.3605(3) 0.16245(11) -0.38698(13)
C49C C 0.2986(3) 0.17930(11) -0.38990(13)
C50C C 0.2499(3) 0.18978(13) -0.35910(14)
H58C H 0.2036 0.1955 -0.3703
H59C H 0.2719 0.2064 -0.3463
H60C H 0.2420 0.1743 -0.3404
C51C C 0.3789(4) 0.09502(13) -0.36663(17)
H61C H 0.3666 0.0790 -0.3494
H62C H 0.4197 0.0894 -0.3828
H63C H 0.3372 0.0996 -0.3828
C52C C 0.3988(3) 0.12100(11) -0.34361(13)
C53C C 0.3921(3) 0.15031(10) -0.35201(13)
C54C C 0.4202(3) 0.16435(11) -0.32020(13)
C55C C 0.4254(3) 0.19632(11) -0.31327(15)
H64C H 0.4640 0.2002 -0.2948
H65C H 0.3795 0.2034 -0.3030
H66C H 0.4360 0.2062 -0.3374
C56C C 0.3916(3) 0.01306(12) -0.29503(15)
H67C H 0.3867 0.0279 -0.3149
H68C H 0.3471 0.0121 -0.2800
H69C H 0.4006 -0.0058 -0.3070
C57C C 0.4529(3) 0.02059(10) -0.26952(13)
C60C C 0.5561(3) -0.04798(10) -0.26079(13)
C61C C 0.6292(3) -0.04093(11) -0.27612(15)
H70C H 0.6400 -0.0536 -0.2979
H71C H 0.6653 -0.0438 -0.2560
H72C H 0.6302 -0.0207 -0.2846
loop_
_geom_bond_atom_site_label_1
_geom_bond_atom_site_label_2
_geom_bond_site_symmetry_1
_geom_bond_site_symmetry_2
Cu1 N1 1_555 1_555
Cu2 N2 1_555 1_555
Cu3 N4 1_555 1_555
Cu4 N8 1_555 1_555
Cu5 N5 1_555 1_555
Cu6 N10 1_555 1_555
Cu7 N15 1_555 1_555
Cu8 N17 1_555 1_555
Cu9 N16 1_555 1_555
Cu10 N13 1_555 1_555
Cu11 N21 1_555 1_555
Cu12 N22 1_555 1_555
Cu13 N14 1_555 1_555
N1 N2 1_555 1_555
N2 C4 1_555 1_555
N3 Cu2 1_555 1_555
N4 N3 1_555 1_555
N5 N6 1_555 1_555
N6 C14 1_555 1_555
N7 N8 1_555 1_555
N8 C19 1_555 1_555
N9 Cu4 1_555 1_555
N10 N9 1_555 1_555
N11 Cu1 1_555 1_555
N12 Cu3 1_555 1_555
N13 N14 1_555 1_555
N14 C34 1_555 1_555
N15 N16 1_555 1_555
N16 C39 1_555 1_555
N17 N18 1_555 1_555
N18 Cu9 1_555 1_555
N19 Cu7 1_555 1_555
N20 Cu8 1_555 1_555
N21 N22 1_555 1_555
N22 C54 1_555 1_555
N23 Cu11 1_555 1_555
N24 C60 1_555 1_555
C1 H1 1_555 1_555
H2 C1 1_555 1_555
H3 C1 1_555 1_555
C2 N1 1_555 1_555
C3 C2 1_555 1_555
C4 C3 1_555 1_555
C5 C4 1_555 1_555
H4 C5 1_555 1_555
H5 C5 1_555 1_555
H6 C5 1_555 1_555
C6 H7 1_555 1_555
H8 C6 1_555 1_555
H9 C6 1_555 1_555
C7 N3 1_555 1_555
C8 C7 1_555 1_555
C9 N4 1_555 1_555
C10 C9 1_555 1_555
H10 C10 1_555 1_555
H11 C10 1_555 1_555
H12 C10 1_555 1_555
C11 H13 1_555 1_555
H14 C11 1_555 1_555
H15 C11 1_555 1_555
C12 N5 1_555 1_555
C13 C8 1_555 1_555
C14 C13 1_555 1_555
C15 C14 1_555 1_555
H16 C15 1_555 1_555
H17 C15 1_555 1_555
H18 C15 1_555 1_555
C16 H19 1_555 1_555
H20 C16 1_555 1_555
H21 C16 1_555 1_555
C17 N7 1_555 1_555
C18 C17 1_555 1_555
C19 C18 1_555 1_555
C20 C19 1_555 1_555
H22 C20 1_555 1_555
H23 C20 1_555 1_555
H24 C20 1_555 1_555
C21 H25 1_555 1_555
H26 C21 1_555 1_555
H27 C21 1_555 1_555
C22 N9 1_555 1_555
C23 C22 1_555 1_555
C24 N10 1_555 1_555
C25 C24 1_555 1_555
H28 C25 1_555 1_555
H29 C25 1_555 1_555
H30 C25 1_555 1_555
C26 H31 1_555 1_555
H32 C26 1_555 1_555
H33 C26 1_555 1_555
C27 N11 1_555 1_555
C28 C23 1_555 1_555
C29 N12 1_555 1_555
C30 C29 1_555 1_555
H34 C30 1_555 1_555
H35 C30 1_555 1_555
H36 C30 1_555 1_555
C31 H37 1_555 1_555
H38 C31 1_555 1_555
H39 C31 1_555 1_555
C32 N13 1_555 1_555
C33 C32 1_555 1_555
C34 C33 1_555 1_555
C35 C34 1_555 1_555
H40 C35 1_555 1_555
H41 C35 1_555 1_555
H42 C35 1_555 1_555
C36 H43 1_555 1_555
H44 C36 1_555 1_555
H45 C36 1_555 1_555
C37 N15 1_555 1_555
C38 C33 1_555 1_555
C39 C38 1_555 1_555
C40 C39 1_555 1_555
H46 C40 1_555 1_555
H47 C40 1_555 1_555
H48 C40 1_555 1_555
C41 H49 1_555 1_555
H50 C41 1_555 1_555
H51 C41 1_555 1_555
C42 N17 1_555 1_555
C43 C42 1_555 1_555
C44 N18 1_555 1_555
C45 C44 1_555 1_555
H52 C45 1_555 1_555
H53 C45 1_555 1_555
H54 C45 1_555 1_555
C46 H55 1_555 1_555
H56 C46 1_555 1_555
H57 C46 1_555 1_555
C47 N19 1_555 1_555
C48 C47 1_555 1_555
C49 N20 1_555 1_555
C50 C49 1_555 1_555
H58 C50 1_555 1_555
H59 C50 1_555 1_555
H60 C50 1_555 1_555
C51 H61 1_555 1_555
H62 C51 1_555 1_555
H63 C51 1_555 1_555
C52 N21 1_555 1_555
C53 C48 1_555 1_555
C54 C53 1_555 1_555
C55 C54 1_555 1_555
H64 C55 1_555 1_555
H65 C55 1_555 1_555
H66 C55 1_555 1_555
C56 H67 1_555 1_555
H68 C56 1_555 1_555
H69 C56 1_555 1_555
C57 N23 1_555 1_555
C58 C57 1_555 1_555
C59 C58 1_555 1_555
C60 C59 1_555 1_555
C61 C60 1_555 1_555
H70 C61 1_555 1_555
H71 C61 1_555 1_555
H72 C61 1_555 1_555
Cu1B N1B 1_555 1_555
Cu2B N2B 1_555 1_555
Cu2L N3L 1_555 1_555
Cu3L N4L 1_555 1_555
Cu3B N4B 1_555 1_555
Cu4G N8G 1_555 1_555
Cu4B N8B 1_555 1_555
Cu5L N7 1_555 1_555
Cu5I N7G 1_555 1_555
Cu6L N6 1_555 1_555
Cu6B N6K 1_555 1_555
Cu7C N19C 1_555 1_555
Cu7C_2 N15C 1_555 1_555
Cu8C N20C 1_555 1_555
Cu8E N17E 1_555 1_555
Cu9C N16C 1_555 1_555
Cu9E N18E 1_555 1_555
Cu10C N13C 1_555 1_555
Cu10H N24 1_555 1_555
Cu10K N24C 1_555 1_555
Cu11C N21C 1_555 1_555
N1B N2B 1_555 1_555
N2B C4B 1_555 1_555
N3L N4L 1_555 1_555
N3B Cu2B 1_555 1_555
N4L C9L 1_555 1_555
N4B N3B 1_555 1_555
N5L Cu5L 1_555 1_555
N6L Cu6 1_555 1_555
N7G N8G 1_555 1_555
N7L Cu5 1_555 1_555
N8G C19G 1_555 1_555
N9B Cu4B 1_555 1_555
N10B Cu6B 1_555 1_555
N11B Cu1B 1_555 1_555
N12B Cu3B 1_555 1_555
N13C N14C 1_555 1_555
N14C Cu13 1_555 1_555
N15C N16C 1_555 1_555
N16C C39C 1_555 1_555
N17E N18E 1_555 1_555
N18E C44E 1_555 1_555
N18C Cu9C 1_555 1_555
N19C N20C 1_555 1_555
N19C_2 Cu7C_2 1_555 1_555
N20C C49C 1_555 1_555
N20E Cu8E 1_555 1_555
N21C N22C 1_555 1_555
N22C Cu12 1_555 1_555
N23C N23 1_555 1_555
N24C N24 1_555 1_555
N24H Cu10 1_555 1_555
N24K Cu10C 1_555 1_555
C1B H1B 1_555 1_555
H2B C1B 1_555 1_555
H3B C1B 1_555 1_555
C2B N1B 1_555 1_555
C3B C3 1_555 1_555
C4B C3B 1_555 1_555
C5B C4B 1_555 1_555
H4B C5B 1_555 1_555
H5B C5B 1_555 1_555
H6B C5B 1_555 1_555
C6L H7L 1_555 1_555
H8L C6L 1_555 1_555
H9L C6L 1_555 1_555
C7L N3L 1_555 1_555
C8L C7L 1_555 1_555
C9L C8L 1_555 1_555
C10L C9L 1_555 1_555
H10L C10L 1_555 1_555
H11L C10L 1_555 1_555
H12L C10L 1_555 1_555
C11L H13L 1_555 1_555
H14L C11L 1_555 1_555
H15L C11L 1_555 1_555
C12L N5L 1_555 1_555
C13L C8L 1_555 1_555
C14L N6L 1_555 1_555
C15L C14L 1_555 1_555
H16L C15L 1_555 1_555
H17L C15L 1_555 1_555
H18L C15L 1_555 1_555
C16G H19G 1_555 1_555
H20G C16G 1_555 1_555
H21G C16G 1_555 1_555
C17G N7G 1_555 1_555
C18G C18 1_555 1_555
C19G C18G 1_555 1_555
C20G C19G 1_555 1_555
H22G C20G 1_555 1_555
H23G C20G 1_555 1_555
H24G C20G 1_555 1_555
C21B H25B 1_555 1_555
H26B C21B 1_555 1_555
H27B C21B 1_555 1_555
C22B N9B 1_555 1_555
C23B C22B 1_555 1_555
C24B N10B 1_555 1_555
C25B C24B 1_555 1_555
H28B C25B 1_555 1_555
H29B C25B 1_555 1_555
H30B C25B 1_555 1_555
C26B H31B 1_555 1_555
H32B C26B 1_555 1_555
H33B C26B 1_555 1_555
C27B N11B 1_555 1_555
C28B C23B 1_555 1_555
C29B N12B 1_555 1_555
C30B C29B 1_555 1_555
H34B C30B 1_555 1_555
H35B C30B 1_555 1_555
H36B C30B 1_555 1_555
C31C H37C 1_555 1_555
H38C C31C 1_555 1_555
H39C C31C 1_555 1_555
C32C N13C 1_555 1_555
C33C C32C 1_555 1_555
C34C N14C 1_555 1_555
C35C C34C 1_555 1_555
H40C C35C 1_555 1_555
H41C C35C 1_555 1_555
H42C C35C 1_555 1_555
C36C H43C 1_555 1_555
H44C C36C 1_555 1_555
H45C C36C 1_555 1_555
C37C N15C 1_555 1_555
C38C C33C 1_555 1_555
C39C C38C 1_555 1_555
C40C C39C 1_555 1_555
H46C C40C 1_555 1_555
H47C C40C 1_555 1_555
H48C C40C 1_555 1_555
C41E H49E 1_555 1_555
H50E C41E 1_555 1_555
H51E C41E 1_555 1_555
C42E N17E 1_555 1_555
C43E C43 1_555 1_555
C44E C43E 1_555 1_555
C45E C44E 1_555 1_555
H52E C45E 1_555 1_555
H53E C45E 1_555 1_555
H54E C45E 1_555 1_555
C46C H55C 1_555 1_555
H56C C46C 1_555 1_555
H57C C46C 1_555 1_555
C47C N19C 1_555 1_555
C48C C47C 1_555 1_555
C49C C48C 1_555 1_555
C50C C49C 1_555 1_555
H58C C50C 1_555 1_555
H59C C50C 1_555 1_555
H60C C50C 1_555 1_555
C51C H61C 1_555 1_555
H62C C51C 1_555 1_555
H63C C51C 1_555 1_555
C52C N21C 1_555 1_555
C53C C48C 1_555 1_555
C54C N22C 1_555 1_555
C55C C54C 1_555 1_555
H64C C55C 1_555 1_555
H65C C55C 1_555 1_555
H66C C55C 1_555 1_555
C56C H67C 1_555 1_555
H68C C56C 1_555 1_555
H69C C56C 1_555 1_555
C57C C58 1_555 1_555
C60C C59 1_555 1_555
C61C C60C 1_555 1_555
H70C C61C 1_555 1_555
H71C C61C 1_555 1_555
H72C C61C 1_555 1_555
N11 N12 1_555 1_555
N19 N20 1_555 1_555
C1 C2 1_555 1_555
C6 C7 1_555 1_555
C8 C9 1_555 1_555
C11 C12 1_555 1_555
C12 C13 1_555 1_555
C16 C17 1_555 1_555
C21 C22 1_555 1_555
C23 C24 1_555 1_555
C26 C27 1_555 1_555
C27 C28 1_555 1_555
C28 C29 1_555 1_555
C31 C32 1_555 1_555
C36 C37 1_555 1_555
C37 C38 1_555 1_555
C41 C42 1_555 1_555
C43 C44 1_555 1_555
C46 C47 1_555 1_555
C48 C49 1_555 1_555
C51 C52 1_555 1_555
C52 C53 1_555 1_555
C56 C57 1_555 1_555
Cu11C N23C 1_555 1_555
N5L N6L 1_555 1_555
N9B N10B 1_555 1_555
N11B N12B 1_555 1_555
N23C C57C 1_555 1_555
N24C C60C 1_555 1_555
N24H N24K 1_555 1_555
C1B C2B 1_555 1_555
C2B C3B 1_555 1_555
C6L C7L 1_555 1_555
C11L C12L 1_555 1_555
C12L C13L 1_555 1_555
C13L C14L 1_555 1_555
C16G C17G 1_555 1_555
C17G C18G 1_555 1_555
C21B C22B 1_555 1_555
C23B C24B 1_555 1_555
C26B C27B 1_555 1_555
C27B C28B 1_555 1_555
C28B C29B 1_555 1_555
C31C C32C 1_555 1_555
C33C C34C 1_555 1_555
C36C C37C 1_555 1_555
C37C C38C 1_555 1_555
C41E C42E 1_555 1_555
C42E C43E 1_555 1_555
C46C C47C 1_555 1_555
C51C C52C 1_555 1_555
C52C C53C 1_555 1_555
C53C C54C 1_555 1_555
C56C C57C 1_555 1_555

#END
