
#######################################################################
#
#                 Cambridge Crystallographic Data Centre
#                                CCDC 
#
#######################################################################
#
# If this CIF has been generated from an entry in the Cambridge 
# Structural Database, then it will include bibliographic, chemical, 
# crystal, experimental, refinement or atomic coordinate data resulting 
# from the CCDC's data processing and validation procedures.
#
#######################################################################

data_LEJKIW
_chemical_formula_moiety         'C12 H23 In16 N4 O81 P17'
_symmetry_cell_setting           hexagonal
_symmetry_space_group_name_H-M   'P 63/m'
_symmetry_Int_Tables_number      176
_space_group_name_Hall           '-P 6c'
loop_
_symmetry_equiv_pos_site_id
_symmetry_equiv_pos_as_xyz
1 x,y,z
2 -y,x-y,z
3 -x+y,-x,z
4 -x,-y,1/2+z
5 y,-x+y,1/2+z
6 x-y,x,1/2+z
7 -x,-y,-z
8 y,-x+y,-z
9 x-y,x,-z
10 x,y,1/2-z
11 -y,x-y,1/2-z
12 -x+y,-x,1/2-z
_cell_length_a                   13.7676(3)
_cell_length_b                   13.7676(3)
_cell_length_c                   28.0619(10)
_cell_angle_alpha                90
_cell_angle_beta                 90
_cell_angle_gamma                120
_cell_volume                     4606.43
loop_
_atom_site_label
_atom_site_type_symbol
_atom_site_fract_x
_atom_site_fract_y
_atom_site_fract_z
In1 In 0.0000 -0.0000 1.0000
In2 In -0.14684(3) -0.44030(2) 0.975370(12)
In3 In 0.0000 -0.0000 0.835590(19)
P1 P -0.02533(11) -0.19086(8) 0.91683(4)
P2 P -0.3333 -0.6667 0.90764(7)
P3 P 0.07277(18) -0.12390(14) 0.7500
P4 P -0.37058(11) -0.49263(8) 1.04011(4)
O1 O 0.03240(26) -0.11120(17) 0.95798(8)
O2 O -0.2855(3) -0.4290(2) 1.00162(14)
O3 O -0.1212(3) -0.3037(2) 0.93218(13)
O4 O -0.4373(3) -0.4352(2) 1.05146(13)
O5 O -0.0692(3) -0.1460(4) 0.87831(11)
O6 O -0.2401(5) -0.5521(3) 0.92050(14)
O7 O -0.0510(3) -0.3104(2) 1.03130(12)
O8 O -0.4440(2) -0.6159(3) 1.02968(13)
O9 O 0.0903(4) -0.0586(3) 0.79524(9)
O10 O 0.15297(63) -0.1720(6) 0.7500
O11 O -0.0373(13) -0.2266(9) 0.7500
H1 H 0.0506 -0.1987 0.8900
H2 H -0.3333 -0.6667 0.8606
H3 H -0.0718 -0.2651 1.0453
H4 H 0.0170 -0.2917 1.0424
H5 H 0.1517 -0.2319 0.7500
O12 O -0.3042(15) -0.4916(14) 1.0821(8)
In2A In 0.44030(2) 0.29346(4) 0.975370(12)
In2B In -0.29346(4) 0.14684(3) 0.975370(12)
In2F In 0.14684(3) 0.44030(2) 1.024630(12)
In2G In -0.44030(2) -0.29346(4) 1.024630(12)
In2H In 0.29346(4) -0.14684(3) 1.024630(12)
In2A_2 In -0.55970(2) -0.70654(4) 0.975370(12)
In2B_2 In -0.29346(4) -0.85316(3) 0.975370(12)
In2F_2 In 0.14684(3) -0.55970(2) 1.024630(12)
In2B_3 In 0.70654(4) 0.14684(3) 0.975370(12)
In2G_2 In 0.55970(2) 0.70654(4) 1.024630(12)
In2_2 In 0.85316(3) 0.55970(2) 0.975370(12)
In3F In 0.0000 0.0000 1.164410(19)
In3I In 0.0000 -0.0000 0.664410(19)
P1A P 0.19086(8) 0.16553(14) 0.91683(4)
P1B P -0.16553(14) 0.02533(11) 0.91683(4)
P1F P 0.02533(11) 0.19086(8) 1.08317(4)
P1G P -0.19086(8) -0.16553(14) 1.08317(4)
P1H P 0.16553(14) -0.02533(11) 1.08317(4)
P2A P 0.6667 0.3334 0.90764(7)
P3A P 0.12390(14) 0.19667(23) 0.7500
P3B P -0.19667(23) -0.07277(18) 0.7500
P4H P 0.12205(14) -0.37058(11) 0.95989(4)
P4B P -0.12205(14) -0.62942(11) 1.04011(4)
P4A P 0.49263(8) 0.12205(14) 1.04011(4)
P4F P 0.37058(11) 0.49263(8) 0.95989(4)
P4_2 P 0.62942(11) 0.50737(8) 1.04011(4)
O1A O 0.11120(17) 0.14360(31) 0.95798(8)
O1B O -0.14360(31) -0.03240(26) 0.95798(8)
O1F O -0.03240(26) 0.11120(17) 1.04202(8)
O1G O -0.11120(17) -0.14360(31) 1.04202(8)
O1H O 0.14360(31) 0.03240(26) 1.04202(8)
O2H O 0.1435(4) -0.2855(3) 0.99838(14)
O2B O -0.1435(4) -0.7145(3) 1.00162(14)
O2A O 0.4290(2) 0.1435(4) 1.00162(14)
O2F O 0.2855(3) 0.4290(2) 0.99838(14)
O2_2 O 0.7145(3) 0.5710(2) 1.00162(14)
O2B_2 O -0.1435(4) 0.2855(3) 1.00162(14)
O2G O -0.4290(2) -0.1435(4) 0.99838(14)
O3A O 0.3037(2) 0.1825(4) 0.93218(13)
O3B O -0.1825(4) 0.1212(3) 0.93218(13)
O3F O 0.1212(3) 0.3037(2) 1.06782(13)
O3G O -0.3037(2) -0.1825(4) 1.06782(13)
O3H O 0.1825(4) -0.1212(3) 1.06782(13)
O4H O -0.0021(4) -0.4373(3) 0.94854(13)
O4B O 0.0021(4) -0.5627(3) 1.05146(13)
O4A O 0.4352(2) -0.0021(4) 1.05146(13)
O4F O 0.4373(3) 0.4352(2) 0.94854(13)
O4_2 O 0.5627(3) 0.5648(2) 1.05146(13)
O4G O -0.4352(2) 0.0021(4) 0.94854(13)
O4B_2 O 0.0021(4) 0.4373(3) 1.05146(13)
O5A O 0.1460(4) 0.0768(5) 0.87831(11)
O5B O -0.0768(5) 0.0692(3) 0.87831(11)
O5F O 0.0692(3) 0.1460(4) 1.12169(11)
O5G O -0.1460(4) -0.0768(5) 1.12169(11)
O5H O 0.0768(5) -0.0692(3) 1.12169(11)
O6A O -0.4479(3) -0.6880(6) 0.92050(14)
O6B O -0.3120(6) -0.7599(5) 0.92050(14)
O6A_2 O 0.5521(3) 0.3120(6) 0.92050(14)
O6B_2 O 0.6880(6) 0.2401(5) 0.92050(14)
O6_2 O 0.7599(5) 0.4479(3) 0.92050(14)
O6B_3 O -0.3120(6) 0.2401(5) 0.92050(14)
O6F O 0.2401(5) 0.5521(3) 1.07950(14)
O6G O -0.5521(3) -0.3120(6) 1.07950(14)
O6H O 0.3120(6) -0.2401(5) 1.07950(14)
O7A O 0.3104(2) 0.2594(4) 1.03130(12)
O7B O -0.2594(4) 0.0510(3) 1.03130(12)
O7F O 0.0510(3) 0.3104(2) 0.96870(12)
O7G O -0.3104(2) -0.2594(4) 0.96870(12)
O7H O 0.2594(4) -0.0510(3) 0.96870(12)
O8H O 0.1719(4) -0.4440(2) 0.97032(13)
O8B O -0.1719(4) -0.5560(2) 1.02968(13)
O8A O 0.6159(3) 0.1719(4) 1.02968(13)
O8F O 0.4440(2) 0.6159(3) 0.97032(13)
O8_2 O 0.5560(2) 0.3841(3) 1.02968(13)
O8A_2 O -0.3841(3) 0.1719(4) 1.02968(13)
O8H_2 O 0.1719(4) 0.5560(2) 0.97032(13)
O8F_2 O -0.5560(2) -0.3841(3) 0.97032(13)
O8G O 0.3841(3) -0.1719(4) 0.97032(13)
O9I O 0.0903(4) -0.0586(3) 0.70476(9)
O9A O 0.0586(3) 0.1489(5) 0.79524(9)
O9J O 0.0586(3) 0.1489(5) 0.70476(9)
O9B O -0.1489(5) -0.0903(4) 0.79524(9)
O9K O -0.1489(5) -0.0903(4) 0.70476(9)
O9F O -0.0903(4) 0.0586(3) 1.20476(9)
O9G O -0.0586(3) -0.1489(5) 1.20476(9)
O9H O 0.1489(5) 0.0903(4) 1.20476(9)
O10A O 0.1720(6) 0.32497(87) 0.7500
O10B O -0.32497(87) -0.15297(63) 0.7500
O11A O 0.2266(9) 0.1893(16) 0.7500
O11B O -0.1893(16) 0.0373(13) 0.7500
H1A H 0.1987 0.2493 0.8900
H1B H -0.2493 -0.0506 0.8900
H1F H -0.0506 0.1987 1.1100
H1G H -0.1987 -0.2493 1.1100
H1H H 0.2493 0.0506 1.1100
H2A H 0.6667 0.3334 0.8606
H3A H 0.2651 0.1933 1.0453
H3B H -0.1933 0.0718 1.0453
H3F H 0.0718 0.2651 0.9547
H3G H -0.2651 -0.1933 0.9547
H3H H 0.1933 -0.0718 0.9547
H4A H 0.2917 0.3087 1.0424
H4B H -0.3087 -0.0170 1.0424
H4F H -0.0170 0.2917 0.9576
H4G H -0.2917 -0.3087 0.9576
H4H H 0.3087 0.0170 0.9576
H5A H 0.2319 0.3836 0.7500
H5B H -0.3836 -0.1517 0.7500
O12H O 0.1874(21) -0.3042(15) 0.9179(8)
O12B O -0.1874(21) -0.6958(15) 1.0821(8)
O12A O 0.4916(14) 0.1874(21) 1.0821(8)
O12F O 0.3042(15) 0.4916(14) 0.9179(8)
O12_2 O 0.6958(15) 0.5084(14) 1.0821(8)
N1 N 0.4028(14) -0.0397(19) 0.3473(6)
N2 N 0.8153(14) 0.2667(9) 0.3209(6)
C1 C 0.4662(8) -0.0430(13) 0.3085(5)
C2 C 0.5572(9) -0.0661(13) 0.3163(4)
C3 C 0.6126(11) -0.0400(11) 0.3645(4)
C4 C 0.7243(12) 0.0622(9) 0.3664(6)
C5 C 0.7450(19) 0.1644(10) 0.3440(8)
C6 C 0.5982(13) -0.1066(16) 0.2789(5)
N1I N 0.4028(14) -0.0397(19) 0.1527(6)
N2I N 0.8153(14) 0.2667(9) 0.1791(6)
C1I C 0.4662(8) -0.0430(13) 0.1915(5)
C2I C 0.5572(9) -0.0661(13) 0.1837(4)
C3I C 0.6126(11) -0.0400(11) 0.1355(4)
C4I C 0.7243(12) 0.0622(9) 0.1336(6)
C5I C 0.7450(19) 0.1644(10) 0.1560(8)
C6I C 0.5982(13) -0.1066(16) 0.2211(5)
loop_
_geom_bond_atom_site_label_1
_geom_bond_atom_site_label_2
_geom_bond_site_symmetry_1
_geom_bond_site_symmetry_2
In1 O1 1_555 1_555
In2 O2 1_555 1_555
In3 O5 1_555 1_555
P1 O1 1_555 1_555
P2 O6 1_555 1_555
P3 O9 1_555 1_555
P4 O2 1_555 1_555
O3 In2 1_555 1_555
O4 P4 1_555 1_555
O5 P1 1_555 1_555
O6 In2 1_555 1_555
O7 In2 1_555 1_555
O8 P4 1_555 1_555
O9 In3 1_555 1_555
O10 P3 1_555 1_555
O11 P3 1_555 1_555
H1 P1 1_555 1_555
H2 P2 1_555 1_555
H3 O7 1_555 1_555
H4 O7 1_555 1_555
H5 O10 1_555 1_555
N1 C1 1_555 1_555
N2 C5 1_555 1_555
C1 C2 1_555 1_555
C2 C3 1_555 1_555
C3 C4 1_555 1_555
C4 C5 1_555 1_555
C6 C2 1_555 1_555
O12 P4 1_555 1_555
In2A O2A 1_555 1_555
In2B O2B_2 1_555 1_555
In2F O2F 1_555 1_555
In2G O4 1_555 1_555
In2H O2H 1_555 1_555
In2A_2 O8 1_555 1_555
In2B_2 O2B 1_555 1_555
In2F_2 O4B 1_555 1_555
In2B_3 O6B_2 1_555 1_555
In2G_2 O4_2 1_555 1_555
In2_2 O2_2 1_555 1_555
In3F O5F 1_555 1_555
In3I O9I 1_555 1_555
P1A O1A 1_555 1_555
P1B O1B 1_555 1_555
P1F O1F 1_555 1_555
P1G O1G 1_555 1_555
P1H O1H 1_555 1_555
P2A O6A_2 1_555 1_555
P3A O9A 1_555 1_555
P3B O9B 1_555 1_555
P4H O2H 1_555 1_555
P4B O2B 1_555 1_555
P4A O2A 1_555 1_555
P4F O2F 1_555 1_555
P4_2 O2_2 1_555 1_555
O1A In1 1_555 1_555
O1B In1 1_555 1_555
O1F In1 1_555 1_555
O1G In1 1_555 1_555
O1H In1 1_555 1_555
O2G In2G 1_555 1_555
O3A In2A 1_555 1_555
O3B In2B 1_555 1_555
O3F In2F 1_555 1_555
O3G In2G 1_555 1_555
O3H In2H 1_555 1_555
O4H In2 1_555 1_555
O4B P4B 1_555 1_555
O4A In2H 1_555 1_555
O4F In2A 1_555 1_555
O4_2 P4_2 1_555 1_555
O4G In2B 1_555 1_555
O4B_2 In2F 1_555 1_555
O5A In3 1_555 1_555
O5B In3 1_555 1_555
O5F P1F 1_555 1_555
O5G In3F 1_555 1_555
O5H In3F 1_555 1_555
O6A P2 1_555 1_555
O6B P2 1_555 1_555
O6A_2 In2A 1_555 1_555
O6B_2 P2A 1_555 1_555
O6_2 In2_2 1_555 1_555
O6B_3 In2B 1_555 1_555
O6F In2F 1_555 1_555
O6G In2G 1_555 1_555
O6H In2H 1_555 1_555
O7A In2A 1_555 1_555
O7B In2B 1_555 1_555
O7F In2F 1_555 1_555
O7G In2G 1_555 1_555
O7H In2H 1_555 1_555
O8H In2F_2 1_555 1_555
O8B In2 1_555 1_555
O8A In2B_3 1_555 1_555
O8F In2G_2 1_555 1_555
O8_2 In2A 1_555 1_555
O8A_2 In2B 1_555 1_555
O8H_2 In2F 1_555 1_555
O8F_2 In2G 1_555 1_555
O8G In2H 1_555 1_555
O9I P3 1_555 1_555
O9A In3 1_555 1_555
O9J In3I 1_555 1_555
O9B In3 1_555 1_555
O9K In3I 1_555 1_555
O9F In3F 1_555 1_555
O9G In3F 1_555 1_555
O9H In3F 1_555 1_555
O10A P3A 1_555 1_555
O10B P3B 1_555 1_555
O11A P3A 1_555 1_555
O11B P3B 1_555 1_555
H1A P1A 1_555 1_555
H1B P1B 1_555 1_555
H1F P1F 1_555 1_555
H1G P1G 1_555 1_555
H1H P1H 1_555 1_555
H2A P2A 1_555 1_555
H3A O7A 1_555 1_555
H3B O7B 1_555 1_555
H3F O7F 1_555 1_555
H3G O7G 1_555 1_555
H3H O7H 1_555 1_555
H4A O7A 1_555 1_555
H4B O7B 1_555 1_555
H4F O7F 1_555 1_555
H4G O7G 1_555 1_555
H4H O7H 1_555 1_555
H5A O10A 1_555 1_555
H5B O10B 1_555 1_555
N1I C1I 1_555 1_555
N2I C5I 1_555 1_555
C1I C2I 1_555 1_555
C2I C3I 1_555 1_555
C3I C4I 1_555 1_555
C4I C5I 1_555 1_555
C6I C6 1_555 1_555
O12H P4H 1_555 1_555
O12B P4B 1_555 1_555
O12A P4A 1_555 1_555
O12F P4F 1_555 1_555
O12_2 P4_2 1_555 1_555
P1 O3 1_555 1_555
In2A_2 O6A 1_555 1_555
In2B_2 O6B 1_555 1_555
P1A O3A 1_555 1_555
P1A O5A 1_555 1_555
P1B O3B 1_555 1_555
P1B O5B 1_555 1_555
P1F O3F 1_555 1_555
P1G O3G 1_555 1_555
P1G O5G 1_555 1_555
P1H O3H 1_555 1_555
P1H O5H 1_555 1_555
P2A O6_2 1_555 1_555
P3A O9J 1_555 1_555
P3B O9K 1_555 1_555
P4H O4H 1_555 1_555
P4H O8H 1_555 1_555
P4B O8B 1_555 1_555
P4A O4A 1_555 1_555
P4A O8A 1_555 1_555
P4F O4F 1_555 1_555
P4F O8F 1_555 1_555
P4_2 O8_2 1_555 1_555
C2I C6I 1_555 1_555

#END
