
#######################################################################
#
#                 Cambridge Crystallographic Data Centre
#                                CCDC 
#
#######################################################################
#
# If this CIF has been generated from an entry in the Cambridge 
# Structural Database, then it will include bibliographic, chemical, 
# crystal, experimental, refinement or atomic coordinate data resulting 
# from the CCDC's data processing and validation procedures.
#
#######################################################################

data_DARBUU
_chemical_formula_moiety         '(C9 H12 Cl1 Cu4 N6 1-)n'
_symmetry_cell_setting           monoclinic
_symmetry_space_group_name_H-M   'C 2/c'
_symmetry_Int_Tables_number      15
_space_group_name_Hall           '-C 2yc'
loop_
_symmetry_equiv_pos_site_id
_symmetry_equiv_pos_as_xyz
1 x,y,z
2 1/2+x,1/2+y,z
3 -x,y,1/2-z
4 1/2-x,1/2+y,1/2-z
5 -x,-y,-z
6 1/2-x,1/2-y,-z
7 x,-y,1/2+z
8 1/2+x,1/2-y,1/2+z
_cell_length_a                   12.0576(8)
_cell_length_b                   17.8073(11)
_cell_length_c                   9.7855(7)
_cell_angle_alpha                90
_cell_angle_beta                 95.306(4)
_cell_angle_gamma                90
_cell_volume                     2092.07
loop_
_atom_site_label
_atom_site_type_symbol
_atom_site_fract_x
_atom_site_fract_y
_atom_site_fract_z
Cu1 Cu 0.003288(14) -0.374901(9) 0.623451(16)
Cu2 Cu 0.394690(13) -0.347150(9) 0.831650(16)
Cl1 Cl 0.5000 -0.44352(3) 0.7500
N1 N -0.02111(10) -0.28269(7) 0.51245(12)
N2 N -0.00169(11) -0.47077(7) 0.52640(12)
N3 N 0.23882(10) -0.36484(7) 0.77464(13)
C1 C -0.04520(11) -0.23149(8) 0.44470(13)
C2 C 0.00169(11) -0.52923(7) 0.47360(12)
C3 C 0.14506(11) -0.36853(7) 0.75403(15)
Cu1D Cu -0.003288(14) -0.625099(9) 0.376549(16)
Cu1B Cu -0.003288(14) -0.374901(9) 0.876549(16)
Cu1G Cu 0.503288(14) -0.125099(9) 1.123451(16)
Cu2B Cu -0.394690(13) -0.347150(9) 0.668350(16)
Cu2B_2 Cu 0.605310(13) -0.347150(9) 0.668350(16)
Cu2G Cu -0.105310(13) -0.152850(9) 0.331650(16)
Cl1_2 Cl -0.5000 -0.44352(3) 0.7500
N1G N 0.47889(10) -0.21731(7) 1.01245(12)
N1D N 0.02111(10) -0.71731(7) 0.48755(12)
N3B N -0.23882(10) -0.36484(7) 0.72536(13)
C1G C 0.45480(11) -0.26851(8) 0.94470(13)
C1E C -0.45480(11) -0.26851(8) 0.55530(13)
C3B C -0.14506(11) -0.36853(7) 0.74597(15)
C3F C 0.14506(11) -0.63147(7) 0.25403(15)
C3D C -0.14506(11) -0.63147(7) 0.24597(15)
N4 N -0.23458(9) 0.11641(6) 0.30154(12)
C4 C -0.1631(2) 0.14718(18) 0.2060(3)
H1 H -0.2075 0.1712 0.1320
H2 H -0.1202 0.1076 0.1701
H3 H -0.1138 0.1833 0.2520
C5 C -0.1741(2) 0.07820(15) 0.4211(2)
H4 H -0.1269 0.0398 0.3893
H5 H -0.2269 0.0559 0.4767
H6 H -0.1296 0.1142 0.4747
C6 C -0.3011(3) 0.0601(2) 0.2367(3)
H7 H -0.3431 0.0805 0.1572
H8 H -0.3512 0.0410 0.2991
H9 H -0.2545 0.0201 0.2092
C7 C -0.3021(2) 0.17616(15) 0.3547(3)
H10 H -0.3414 0.2025 0.2794
H11 H -0.2546 0.2106 0.4080
H12 H -0.3546 0.1546 0.4114
loop_
_geom_bond_atom_site_label_1
_geom_bond_atom_site_label_2
_geom_bond_site_symmetry_1
_geom_bond_site_symmetry_2
Cu1 N1 1_555 1_555
Cu2 Cl1 1_555 1_555
Cl1 Cu2B_2 1_555 1_555
N1 C1 1_555 1_555
N2 Cu1 1_555 1_555
N3 Cu2 1_555 1_555
C1 Cu2G 1_555 1_555
C2 N2 1_555 1_555
C3 Cu1 1_555 1_555
N4 C4 1_555 1_555
C4 H1 1_555 1_555
H2 C4 1_555 1_555
H3 C4 1_555 1_555
C5 N4 1_555 1_555
H4 C5 1_555 1_555
H5 C5 1_555 1_555
H6 C5 1_555 1_555
C6 N4 1_555 1_555
H7 C6 1_555 1_555
H8 C6 1_555 1_555
H9 C6 1_555 1_555
C7 N4 1_555 1_555
H10 C7 1_555 1_555
H11 C7 1_555 1_555
H12 C7 1_555 1_555
Cu1D C2 1_555 1_555
Cu1B C3 1_555 1_555
Cu1G N1G 1_555 1_555
Cu2B Cl1_2 1_555 1_555
N1G C1G 1_555 1_555
N1D Cu1D 1_555 1_555
N3B Cu2B 1_555 1_555
C1G Cu2 1_555 1_555
C1E Cu2B 1_555 1_555
C3B Cu1 1_555 1_555
C3F Cu1D 1_555 1_555
C3D Cu1D 1_555 1_555
N3 C3 1_555 1_555
Cu1B C3B 1_555 1_555
N3B C3B 1_555 1_555

#END
