
#######################################################################
#
#                 Cambridge Crystallographic Data Centre
#                                CCDC 
#
#######################################################################
#
# If this CIF has been generated from an entry in the Cambridge 
# Structural Database, then it will include bibliographic, chemical, 
# crystal, experimental, refinement or atomic coordinate data resulting 
# from the CCDC's data processing and validation procedures.
#
#######################################################################

data_RIPROZ
_chemical_formula_moiety         '(C15 H3 Co3 Gd1 N9 O18 3-)n'
_symmetry_cell_setting           hexagonal
_symmetry_space_group_name_H-M   'P -6 2 c'
_symmetry_Int_Tables_number      190
_space_group_name_Hall           'P -6c -2c'
loop_
_symmetry_equiv_pos_site_id
_symmetry_equiv_pos_as_xyz
1 x,y,z
2 -x+y,-x,1/2-z
3 -y,x-y,z
4 x,y,1/2-z
5 -x+y,-x,z
6 -y,x-y,1/2-z
7 y,x,1/2+z
8 x-y,-y,-z
9 -x,-x+y,1/2+z
10 y,x,-z
11 x-y,-y,1/2+z
12 -x,-x+y,-z
_cell_length_a                   14.3327(10)
_cell_length_b                   14.3327(10)
_cell_length_c                   12.5871(9)
_cell_angle_alpha                90
_cell_angle_beta                 90
_cell_angle_gamma                120
_cell_volume                     2239.3
loop_
_atom_site_label
_atom_site_type_symbol
_atom_site_fract_x
_atom_site_fract_y
_atom_site_fract_z
Gd1 Gd 0.3333 0.6667 0.2500
Co1 Co 0.75309(12) 0.75309(12) 0.5000
O1 O 0.9162(11) 0.7830(12) 0.5000(6)
O2 O 0.5894(6) 0.7097(6) 0.4854(4)
O3 O 0.4575(6) 0.6771(6) 0.3714(5)
N1 N 0.7303(6) 0.7418(6) 0.3352(4)
N2 N 0.7890(8) 0.7517(8) 0.2500
C1 C 0.5548(7) 0.7007(8) 0.3913(5)
C2 C 1.0000 0.8542(8) 0.5000
H1 H 1.0000 0.9191 0.5000
C3 C 0.6328(7) 0.7164(8) 0.3077(6)
O1K O 1.0838(11) 0.8668(16) 0.5000(6)
O2C O 0.5894(6) 0.7097(6) 0.0146(4)
O3C O 0.4575(6) 0.6771(6) 0.1286(5)
N1C N 0.7303(6) 0.7418(6) 0.1648(4)
C1C C 0.5548(7) 0.7007(8) 0.1087(5)
C3C C 0.6328(7) 0.7164(8) 0.1923(6)
Co1A Co -0.00000(17) 0.24691(12) 0.0000
O1A O -0.1332(16) 0.0838(11) 0.0000(6)
O2A O 0.1203(8) 0.4106(6) 0.0146(4)
O3A O 0.2196(8) 0.5425(6) 0.1286(5)
N1A N 0.0115(8) 0.2697(6) 0.1648(4)
N2A N -0.0373(11) 0.2110(8) 0.2500
C1A C 0.1459(11) 0.4452(7) 0.1087(5)
C2A C -0.1458(8) 0.0000 0.0000
H1A H -0.0809 0.0000 0.0000
C3A C 0.0836(11) 0.3672(7) 0.1923(6)
O1F O -0.2170(12) -0.0838(11) 0.0000(6)
O2D O 0.1203(8) 0.4106(6) 0.4854(4)
O3D O 0.2196(8) 0.5425(6) 0.3714(5)
N1D N 0.0115(8) 0.2697(6) 0.3352(4)
C1D C 0.1459(11) 0.4452(7) 0.3913(5)
C3D C 0.0836(11) 0.3672(7) 0.3077(6)
Co1B Co 0.24691(12) 1.00000(17) 0.5000
O1B O 0.2170(12) 1.1332(16) 0.5000(6)
O2B O 0.2903(6) 0.8797(8) 0.4854(4)
O3B O 0.3229(6) 0.7804(8) 0.3714(5)
N1B N 0.2582(6) 0.9885(8) 0.3352(4)
N2B N 0.2483(8) 1.0373(11) 0.2500
C1B C 0.2993(8) 0.8541(11) 0.3913(5)
C2B C 0.1458(8) 1.1458(8) 0.5000
H1B H 0.0809 1.0809 0.5000
C3B C 0.2836(8) 0.9164(11) 0.3077(6)
O1G O 0.1332(16) 1.2170(12) 0.5000(6)
O2E O 0.2903(6) 0.8797(8) 0.0146(4)
O3E O 0.3229(6) 0.7804(8) 0.1286(5)
N1E N 0.2582(6) 0.9885(8) 0.1648(4)
C1E C 0.2993(8) 0.8541(11) 0.1087(5)
C3E C 0.2836(8) 0.9164(11) 0.1923(6)
Co1B_2 Co 1.24691(12) 1.00000(17) 0.5000
Co1C Co -0.24691(12) -0.24691(12) 0.0000
Co1C_2 Co 0.75309(12) 0.75309(12) 0.0000
Co1D Co -0.00000(17) 0.24691(12) 0.5000
Co1D_2 Co -0.00000(17) 1.24691(12) 0.5000
Co1E Co 0.24691(12) 1.00000(17) 0.0000
O1I O 0.7830(12) 0.9162(11) 0.5000(6)
O1J O 0.1332(16) 0.2170(12) 0.0000(6)
O1K_2 O 0.0838(11) 0.8668(16) 0.5000(6)
O2I O 0.7097(6) 0.5894(6) 0.5146(4)
O2J O -0.1203(8) 0.2903(6) -0.0146(4)
O2K O 0.4106(6) 1.1203(8) 0.5146(4)
N1I N 0.7418(6) 0.7303(6) 0.6648(4)
N1J N -0.0115(8) 0.2582(6) -0.1648(4)
N1K N 0.2697(6) 1.0115(8) 0.6648(4)
loop_
_geom_bond_atom_site_label_1
_geom_bond_atom_site_label_2
_geom_bond_site_symmetry_1
_geom_bond_site_symmetry_2
Gd1 O3 1_555 1_555
Co1 O1 1_555 1_555
O1 C2 1_555 1_555
O2 Co1 1_555 1_555
O3 C1 1_555 1_555
N1 Co1 1_555 1_555
N2 N1 1_555 1_555
C1 O2 1_555 1_555
C2 H1 1_555 1_555
C3 N1 1_555 1_555
O1K C2 1_555 1_555
O2C C1C 1_555 1_555
O3C Gd1 1_555 1_555
N1C N2 1_555 1_555
C1C O3C 1_555 1_555
C3C C3 1_555 1_555
Co1A O1A 1_555 1_555
O1A C2A 1_555 1_555
O2A Co1A 1_555 1_555
O3A Gd1 1_555 1_555
N1A Co1A 1_555 1_555
N2A N1A 1_555 1_555
C1A O2A 1_555 1_555
C2A H1A 1_555 1_555
C3A N1A 1_555 1_555
O1F C2A 1_555 1_555
O2D C1D 1_555 1_555
O3D Gd1 1_555 1_555
N1D N2A 1_555 1_555
C1D O3D 1_555 1_555
C3D C3A 1_555 1_555
Co1B O1B 1_555 1_555
O1B C2B 1_555 1_555
O2B Co1B 1_555 1_555
O3B Gd1 1_555 1_555
N1B Co1B 1_555 1_555
N2B N1B 1_555 1_555
C1B O2B 1_555 1_555
C2B H1B 1_555 1_555
C3B N1B 1_555 1_555
O1G C2B 1_555 1_555
O2E C1E 1_555 1_555
O3E Gd1 1_555 1_555
N1E N2B 1_555 1_555
C1E O3E 1_555 1_555
C3E C3B 1_555 1_555
Co1B_2 O1K 1_555 1_555
Co1C O1F 1_555 1_555
Co1C_2 O2C 1_555 1_555
Co1D O2D 1_555 1_555
Co1D_2 O1G 1_555 1_555
Co1E O2E 1_555 1_555
O1I Co1 1_555 1_555
O1J Co1A 1_555 1_555
O1K_2 Co1B 1_555 1_555
O2I Co1 1_555 1_555
O2J Co1A 1_555 1_555
O2K Co1B 1_555 1_555
N1I Co1 1_555 1_555
N1J Co1A 1_555 1_555
N1K Co1B 1_555 1_555
C1 C3 1_555 1_555
N1C C3C 1_555 1_555
N1C Co1C_2 1_555 1_555
C1C C3C 1_555 1_555
O3A C1A 1_555 1_555
C1A C3A 1_555 1_555
N1D C3D 1_555 1_555
N1D Co1D 1_555 1_555
C1D C3D 1_555 1_555
O3B C1B 1_555 1_555
C1B C3B 1_555 1_555
N1E C3E 1_555 1_555
N1E Co1E 1_555 1_555
C1E C3E 1_555 1_555

#END
