
#######################################################################
#
#                 Cambridge Crystallographic Data Centre
#                                CCDC 
#
#######################################################################
#
# If this CIF has been generated from an entry in the Cambridge 
# Structural Database, then it will include bibliographic, chemical, 
# crystal, experimental, refinement or atomic coordinate data resulting 
# from the CCDC's data processing and validation procedures.
#
#######################################################################

data_ABETIN
_chemical_formula_moiety         '(C28 H26 Cu1 N5 O40 P1 W12 1-)n'
_symmetry_cell_setting           tetragonal
_symmetry_space_group_name_H-M   'I 41/a c d'
_symmetry_Int_Tables_number      142
_space_group_name_Hall           '-I 4bd 2c'
loop_
_symmetry_equiv_pos_site_id
_symmetry_equiv_pos_as_xyz
1 x,y,z
2 1/4-y,3/4+x,1/4+z
3 -x,1/2-y,z
4 1/4+y,1/4-x,3/4+z
5 x,-y,1/2-z
6 1/2-x,y,-z
7 3/4+y,1/4+x,1/4-z
8 1/4-y,1/4-x,1/4-z
9 1/2+x,1/2+y,1/2+z
10 3/4-y,1/4+x,3/4+z
11 1/2-x,-y,1/2+z
12 3/4+y,3/4-x,1/4+z
13 1/2+x,1/2-y,-z
14 -x,1/2+y,1/2-z
15 1/4+y,3/4+x,3/4-z
16 3/4-y,3/4-x,3/4-z
17 -x,-y,-z
18 3/4+y,1/4-x,3/4-z
19 x,1/2+y,-z
20 3/4-y,3/4+x,1/4-z
21 -x,y,1/2+z
22 1/2+x,-y,z
23 1/4-y,3/4-x,3/4+z
24 3/4+y,3/4+x,3/4+z
25 1/2-x,1/2-y,1/2-z
26 1/4+y,3/4-x,1/4-z
27 1/2+x,y,1/2-z
28 1/4-y,1/4+x,3/4-z
29 1/2-x,1/2+y,z
30 x,1/2-y,1/2+z
31 3/4-y,1/4-x,1/4+z
32 1/4+y,1/4+x,1/4+z
_cell_length_a                   26.9629(3)
_cell_length_b                   26.9629(3)
_cell_length_c                   27.5365(4)
_cell_angle_alpha                90
_cell_angle_beta                 90
_cell_angle_gamma                90
_cell_volume                     20019
loop_
_atom_site_label
_atom_site_type_symbol
_atom_site_fract_x
_atom_site_fract_y
_atom_site_fract_z
Cu1 Cu 0.7500 0.37085(6) 0.5000
N1 N 0.4185(2) 0.4877(2) 0.6897(2)
N2 N 0.6919(2) 0.4166(2) 0.4855(2)
C1 C 0.3957(3) 0.4670(3) 0.6510(3)
H1 H 0.3663 0.4497 0.6562
C2 C 0.4139(3) 0.4701(3) 0.6044(3)
H2 H 0.3969 0.4556 0.5786
C3 C 0.4585(3) 0.4955(3) 0.5965(3)
C4 C 0.4832(3) 0.5143(3) 0.6364(3)
H3 H 0.5140 0.5294 0.6328
C5 C 0.4615(3) 0.5104(3) 0.6820(3)
H4 H 0.4779 0.5243 0.7084
C6 C 0.4797(3) 0.4994(3) 0.5474(3)
C7 C 0.5286(3) 0.4853(3) 0.5390(3)
H5 H 0.5480 0.4758 0.5653
C8 C 0.5494(3) 0.4849(3) 0.4932(3)
C9 C 0.5996(3) 0.4635(3) 0.4880(3)
C10 C 0.6383(3) 0.4797(3) 0.5171(3)
H6 H 0.6340 0.5066 0.5378
C11 C 0.6836(3) 0.4554(3) 0.5148(3)
H7 H 0.7094 0.4666 0.5345
C12 C 0.6550(3) 0.4020(3) 0.4568(3)
H8 H 0.6608 0.3759 0.4354
C13 C 0.6083(3) 0.4237(3) 0.4571(3)
H9 H 0.5833 0.4118 0.4370
N1P N 0.5815(2) 0.5123(2) 0.3103(2)
N2P N 0.3081(2) 0.5834(2) 0.5145(2)
C1P C 0.6043(3) 0.5330(3) 0.3490(3)
H1P H 0.6337 0.5503 0.3438
C2P C 0.5861(3) 0.5299(3) 0.3956(3)
H2P H 0.6031 0.5444 0.4214
C3P C 0.5415(3) 0.5045(3) 0.4035(3)
C4P C 0.5168(3) 0.4857(3) 0.3636(3)
H3P H 0.4860 0.4706 0.3672
C5P C 0.5385(3) 0.4896(3) 0.3180(3)
H4P H 0.5221 0.4757 0.2916
C6P C 0.5203(3) 0.5006(3) 0.4526(3)
C7P C 0.4714(3) 0.5147(3) 0.4610(3)
H5P H 0.4520 0.5242 0.4347
C8P C 0.4506(3) 0.5151(3) 0.5068(3)
C9P C 0.4004(3) 0.5365(3) 0.5120(3)
C10P C 0.3617(3) 0.5203(3) 0.4829(3)
H6P H 0.3660 0.4934 0.4622
C11P C 0.3164(3) 0.5446(3) 0.4852(3)
H7P H 0.2906 0.5334 0.4655
C12P C 0.3450(3) 0.5980(3) 0.5432(3)
H8P H 0.3392 0.6241 0.5646
C13P C 0.3917(3) 0.5763(3) 0.5429(3)
H9P H 0.4167 0.5882 0.5630
Cu1C Cu 0.62085(6) 0.5000 0.2500
Cu1P Cu 0.2500 0.62915(6) 0.5000
Cu1S Cu 0.37915(6) 0.5000 0.7500
N1V N 0.7623(2) 0.3315(2) 0.4397(2)
N1Y N 0.7377(2) 0.3315(2) 0.5603(2)
N2E N 0.8081(2) 0.4166(2) 0.5145(2)
C14 C 0.7108(12) 0.3108(13) 1.0066(12)
H10 H 0.6955 0.2800 1.0157
H11 H 0.7131 0.3320 1.0345
C15 C 0.692(3) 0.367(3) 0.928(2)
H12 H 0.7220 0.3565 0.9130
H13 H 0.6948 0.4004 0.9391
H14 H 0.6649 0.3645 0.9053
N3 N 0.681(2) 0.335(2) 0.9695(17)
H15 H 0.6592 0.3520 0.9866
H16 H 0.6643 0.3098 0.9565
W1 W 0.59143(2) 0.26973(2) 0.53347(2)
W2 W 0.61303(2) 0.18220(2) 0.62211(2)
W3 W 0.58979(2) 0.27557(2) 0.71660(2)
P1 P 0.5000 0.2500 0.6250
O1 O 0.6659(2) 0.1499(2) 0.6310(3)
O2 O 0.5829(2) 0.1438(2) 0.5714(3)
O3 O 0.5683(2) 0.1532(2) 0.6670(2)
O4 O 0.6335(2) 0.2274(2) 0.5713(2)
O5 O 0.6313(2) 0.2895(2) 0.4900(3)
O6 O 0.5312(2) 0.3020(2) 0.5169(2)
O7 O 0.54029(19) 0.22562(19) 0.5923(2)
O8 O 0.6177(2) 0.2354(2) 0.6669(2)
O9 O 0.6345(2) 0.2769(2) 0.7598(3)
O10 O 0.5398(2) 0.3159(2) 0.7464(3)
O7B O 0.45971(19) 0.27438(19) 0.5923(2)
O7S O 0.52438(19) 0.29029(19) 0.6577(2)
O7Y O 0.47562(19) 0.20971(19) 0.6577(2)
W1B W 0.40857(2) 0.23027(2) 0.53347(2)
W2B W 0.38697(2) 0.31780(2) 0.62211(2)
W3B W 0.41021(2) 0.22443(2) 0.71660(2)
O1B O 0.3341(2) 0.3501(2) 0.6310(3)
O2B O 0.4171(2) 0.3562(2) 0.5714(3)
O3B O 0.4317(2) 0.3468(2) 0.6670(2)
O4B O 0.3665(2) 0.2726(2) 0.5713(2)
O5B O 0.3687(2) 0.2105(2) 0.4900(3)
O6B O 0.4688(2) 0.1980(2) 0.5169(2)
O8B O 0.3823(2) 0.2646(2) 0.6669(2)
O9B O 0.3655(2) 0.2231(2) 0.7598(3)
O10B O 0.4602(2) 0.1841(2) 0.7464(3)
W1S W 0.48027(2) 0.34143(2) 0.71653(2)
W2S W 0.56780(2) 0.36303(2) 0.62789(2)
W3S W 0.47443(2) 0.33979(2) 0.53340(2)
O1S O 0.6001(2) 0.4159(2) 0.6190(3)
O2S O 0.6062(2) 0.3329(2) 0.6786(3)
O3S O 0.5968(2) 0.3183(2) 0.5830(2)
O4S O 0.5226(2) 0.3835(2) 0.6787(2)
O5S O 0.4605(2) 0.3813(2) 0.7600(3)
O6S O 0.4480(2) 0.2812(2) 0.7331(2)
O8S O 0.5146(2) 0.3677(2) 0.5831(2)
O9S O 0.4731(2) 0.3845(2) 0.4902(3)
O10S O 0.4341(2) 0.2898(2) 0.5036(3)
W1Y W 0.51973(2) 0.15857(2) 0.71653(2)
W2Y W 0.43220(2) 0.13697(2) 0.62789(2)
W3Y W 0.52557(2) 0.16021(2) 0.53340(2)
O1Y O 0.3999(2) 0.0841(2) 0.6190(3)
O2Y O 0.3938(2) 0.1671(2) 0.6786(3)
O3Y O 0.4032(2) 0.1817(2) 0.5830(2)
O4Y O 0.4774(2) 0.1165(2) 0.6787(2)
O5Y O 0.5395(2) 0.1187(2) 0.7600(3)
O6Y O 0.5520(2) 0.2188(2) 0.7331(2)
O8Y O 0.4854(2) 0.1323(2) 0.5831(2)
O9Y O 0.5269(2) 0.1155(2) 0.4902(3)
O10Y O 0.5659(2) 0.2102(2) 0.5036(3)
loop_
_geom_bond_atom_site_label_1
_geom_bond_atom_site_label_2
_geom_bond_site_symmetry_1
_geom_bond_site_symmetry_2
W1 O4 1_555 1_555
W2 O1 1_555 1_555
W3 O8 1_555 1_555
P1 O7 1_555 1_555
O2 W2 1_555 1_555
O3 W2 1_555 1_555
O4 W2 1_555 1_555
O5 W1 1_555 1_555
O6 W1 1_555 1_555
O7 W1 1_555 1_555
O8 W2 1_555 1_555
O9 W3 1_555 1_555
O10 W3 1_555 1_555
Cu1 N2 1_555 1_555
N1 C1 1_555 1_555
N2 C11 1_555 1_555
C1 H1 1_555 1_555
C2 C1 1_555 1_555
H2 C2 1_555 1_555
C3 C2 1_555 1_555
C4 C3 1_555 1_555
H3 C4 1_555 1_555
C5 N1 1_555 1_555
H4 C5 1_555 1_555
C6 C3 1_555 1_555
C7 C6 1_555 1_555
H5 C7 1_555 1_555
C8 C7 1_555 1_555
C9 C8 1_555 1_555
C10 C9 1_555 1_555
H6 C10 1_555 1_555
C11 C10 1_555 1_555
H7 C11 1_555 1_555
C12 N2 1_555 1_555
H8 C12 1_555 1_555
C13 C9 1_555 1_555
H9 C13 1_555 1_555
C14 H10 1_555 1_555
H11 C14 1_555 1_555
C15 H12 1_555 1_555
H13 C15 1_555 1_555
H14 C15 1_555 1_555
N3 C14 1_555 1_555
H15 N3 1_555 1_555
H16 N3 1_555 1_555
O7B P1 1_555 1_555
O7S W3 1_555 1_555
O7Y P1 1_555 1_555
W1B O7B 1_555 1_555
W2B O7B 1_555 1_555
W3B O7Y 1_555 1_555
O1B W2B 1_555 1_555
O2B W2B 1_555 1_555
O3B W2B 1_555 1_555
O4B W1B 1_555 1_555
O5B W1B 1_555 1_555
O6B W1B 1_555 1_555
O8B W2B 1_555 1_555
O9B W3B 1_555 1_555
O10B W3B 1_555 1_555
W1S O10 1_555 1_555
W2S O7S 1_555 1_555
W3S O6 1_555 1_555
O1S W2S 1_555 1_555
O2S W3 1_555 1_555
O3S W1 1_555 1_555
O4S W1S 1_555 1_555
O5S W1S 1_555 1_555
O6S W3B 1_555 1_555
O8S W2S 1_555 1_555
O9S W3S 1_555 1_555
O10S W1B 1_555 1_555
W1Y O3 1_555 1_555
W2Y O7Y 1_555 1_555
W3Y O2 1_555 1_555
O1Y W2Y 1_555 1_555
O2Y W3B 1_555 1_555
O3Y W1B 1_555 1_555
O4Y W1Y 1_555 1_555
O5Y W1Y 1_555 1_555
O6Y W3 1_555 1_555
O8Y W2Y 1_555 1_555
O9Y W3Y 1_555 1_555
O10Y W1 1_555 1_555
N1P C1P 1_555 1_555
N2P C11P 1_555 1_555
C1P H1P 1_555 1_555
C2P C1P 1_555 1_555
H2P C2P 1_555 1_555
C3P C2P 1_555 1_555
C4P C3P 1_555 1_555
H3P C4P 1_555 1_555
C5P N1P 1_555 1_555
H4P C5P 1_555 1_555
C6P C8 1_555 1_555
C7P C6P 1_555 1_555
H5P C7P 1_555 1_555
C8P C6 1_555 1_555
C9P C8P 1_555 1_555
C10P C9P 1_555 1_555
H6P C10P 1_555 1_555
C11P C10P 1_555 1_555
H7P C11P 1_555 1_555
C12P N2P 1_555 1_555
H8P C12P 1_555 1_555
C13P C9P 1_555 1_555
H9P C13P 1_555 1_555
Cu1C N1P 1_555 1_555
Cu1P N2P 1_555 1_555
Cu1S N1 1_555 1_555
N1V Cu1 1_555 1_555
N1Y Cu1 1_555 1_555
N2E Cu1 1_555 1_555
W2 O7 1_555 1_555
P1 O7S 1_555 1_555
O7 W3Y 1_555 1_555
C4 C5 1_555 1_555
C12 C13 1_555 1_555
C15 N3 1_555 1_555
O7B W3S 1_555 1_555
O7S W1S 1_555 1_555
O7Y W1Y 1_555 1_555
W2B O4B 1_555 1_555
W3B O8B 1_555 1_555
O2B W3S 1_555 1_555
O3B W1S 1_555 1_555
O6B W3Y 1_555 1_555
O10B W1Y 1_555 1_555
W1S O6S 1_555 1_555
W2S O2S 1_555 1_555
W2S O3S 1_555 1_555
W2S O4S 1_555 1_555
W3S O8S 1_555 1_555
W3S O10S 1_555 1_555
W1Y O6Y 1_555 1_555
W2Y O2Y 1_555 1_555
W2Y O3Y 1_555 1_555
W2Y O4Y 1_555 1_555
W3Y O8Y 1_555 1_555
W3Y O10Y 1_555 1_555
C3P C6P 1_555 1_555
C4P C5P 1_555 1_555
C7P C8P 1_555 1_555
C12P C13P 1_555 1_555

#END
