
#######################################################################
#
#                 Cambridge Crystallographic Data Centre
#                                CCDC 
#
#######################################################################
#
# If this CIF has been generated from an entry in the Cambridge 
# Structural Database, then it will include bibliographic, chemical, 
# crystal, experimental, refinement or atomic coordinate data resulting 
# from the CCDC's data processing and validation procedures.
#
#######################################################################

data_NIMXAK
_chemical_formula_moiety         'C24 H16 N12 O36 Ti11'
_symmetry_cell_setting           tetragonal
_symmetry_space_group_name_H-M   'I 4/m m m'
_symmetry_Int_Tables_number      139
_space_group_name_Hall           '-I 4 2'
loop_
_symmetry_equiv_pos_site_id
_symmetry_equiv_pos_as_xyz
1 x,y,z
2 -x,-y,z
3 -x,y,-z
4 -y,-x,-z
5 -y,x,z
6 y,-x,z
7 y,x,-z
8 x,-y,-z
9 1/2-x,1/2-y,1/2+z
10 1/2-x,1/2+y,1/2-z
11 1/2-y,1/2-x,1/2-z
12 1/2-y,1/2+x,1/2+z
13 1/2+y,1/2-x,1/2+z
14 1/2+y,1/2+x,1/2-z
15 1/2+x,1/2-y,1/2-z
16 1/2+x,1/2+y,1/2+z
17 -x,-y,-z
18 x,y,-z
19 x,-y,z
20 y,x,z
21 y,-x,-z
22 -y,x,-z
23 -y,-x,z
24 -x,y,z
25 1/2+x,1/2+y,1/2-z
26 1/2+x,1/2-y,1/2+z
27 1/2+y,1/2+x,1/2+z
28 1/2+y,1/2-x,1/2-z
29 1/2-y,1/2+x,1/2-z
30 1/2-y,1/2-x,1/2+z
31 1/2-x,1/2+y,1/2+z
32 1/2-x,1/2-y,1/2-z
_cell_length_a                   18.7028(47)
_cell_length_b                   18.7028(47)
_cell_length_c                   18.2028(60)
_cell_angle_alpha                90
_cell_angle_beta                 90
_cell_angle_gamma                90
_cell_volume                     6367.24
loop_
_atom_site_label
_atom_site_type_symbol
_atom_site_fract_x
_atom_site_fract_y
_atom_site_fract_z
O5 O 0.07951 0.07951 0.28963
O6 O 0.00000 0.31989 0.16264
O7 O 0.00000 0.14985 0.16602
O8 O 0.15062 -0.15062 0.1806
O9 O 0.00000 0.00000 0.42831
O10 O 0.00000 0.00000 0.00000
O11 O 0.00000 0.15644 0.00000
O12 O 0.00000 0.50000 0.25000
Ti1 Ti 0.2083 0.074 0.50000
O1 O 0.3111 0.058 0.50000
O2 O 0.1819 0.00000 0.4265
O3 O 0.2259 0.1442 0.4268
C1 C 0.194 0.194 0.4023
C2 C 0.2225 0.2225 0.3209
C3 C 0.19291 0.28122 0.28426
C4 C 0.4265 0.00000 0.50000
C5 C 0.46333 0.06514 0.50000
C6 C 0.3507 0.00000 0.50000
O4 O 0.1074 0.1074 0.50000
N1 N 0.42348 0.12294 0.50000
N2 N 0.13742 0.31587 0.3191
O1B O 0.6889 0.058 0.50000
C4P C 0.5735 0.00000 0.50000
C5B C 0.53667 0.06514 0.50000
C6P C 0.6493 0.00000 0.50000
N1B N 0.57652 0.12294 0.50000
O1G O 0.3111 -0.058 0.50000
C5G C 0.46333 -0.06514 0.50000
N1G N 0.42348 -0.12294 0.50000
O1P O 0.6889 -0.058 0.50000
C5P C 0.53667 -0.06514 0.50000
N1P N 0.57652 -0.12294 0.50000
O3S O 0.1442 0.2259 0.4268
C3S C 0.28122 0.19291 0.28426
N2S N 0.31587 0.13742 0.3191
O3EA O 0.2741 0.3558 0.0732
C1EA C 0.306 0.306 0.0977
C2EA C 0.2775 0.2775 0.1791
C3EA C 0.30709 0.21878 0.21574
N2EA N 0.36258 0.18413 0.1809
O3J O 0.3558 0.2741 0.0732
C3J C 0.21878 0.30709 0.21574
N2J N 0.18413 0.36258 0.1809
Ti1P Ti 0.7917 -0.074 0.50000
O2P O 0.8181 0.00000 0.5735
O3P O 0.7741 -0.1442 0.5732
C1P C 0.806 -0.194 0.5977
C2P C 0.7775 -0.2225 0.6791
C3P C 0.80709 -0.28122 0.71574
N2P N 0.86258 -0.31587 0.6809
O3C O 0.8558 -0.2259 0.5732
C3C C 0.71878 -0.19291 0.71574
N2C N 0.68413 -0.13742 0.6809
O3O O 0.7259 -0.3558 0.9268
C1Z C 0.694 -0.306 0.9023
C2Z C 0.7225 -0.2775 0.8209
C3O C 0.69291 -0.21878 0.78426
N2O N 0.63742 -0.18413 0.8191
O3Z O 0.6442 -0.2741 0.9268
C3Z C 0.78122 -0.30709 0.78426
N2Z N 0.81587 -0.36258 0.8191
O2A O 0.8181 0.00000 0.4265
Ti1B Ti 0.7917 0.074 0.50000
O4B O 0.8926 0.1074 0.50000
Ti1U Ti 0.926 0.2083 0.50000
O2G O 0.1819 0.00000 0.5735
Ti1C Ti 0.926 -0.2083 0.50000
Ti1F Ti 0.074 0.2083 0.50000
Ti1G Ti 0.2083 -0.074 0.50000
Ti1EA Ti 0.2917 0.426 0.00000
Ti1J Ti 0.426 0.2917 0.00000
Ti1M Ti 0.574 -0.2917 1.00000
Ti1X Ti 0.7083 -0.426 1.00000
O1U O 0.942 0.3111 0.50000
O2U O 1.00000 0.1819 0.5735
O2D O 1.00000 0.1819 0.4265
O3A O 0.7741 -0.1442 0.4268
O3B O 0.7741 0.1442 0.5732
O3W O 0.7741 0.1442 0.4268
O3U O 0.8558 0.2259 0.5732
O3D O 0.8558 0.2259 0.4268
O3Q O 0.2259 0.1442 0.5732
O4P O 0.8926 -0.1074 0.50000
loop_
_geom_bond_atom_site_label_1
_geom_bond_atom_site_label_2
_geom_bond_site_symmetry_1
_geom_bond_site_symmetry_2
Ti1 O1 1_555 1_555
O1 C6 1_555 1_555
O2 Ti1 1_555 1_555
O3 Ti1 1_555 1_555
C1 O3 1_555 1_555
C2 C1 1_555 1_555
C3 C2 1_555 1_555
C4 C5 1_555 1_555
C5 N1 1_555 1_555
C6 C4 1_555 1_555
O4 Ti1 1_555 1_555
N2 C3 1_555 1_555
O1B C6P 1_555 1_555
C4P C5B 1_555 1_555
C5B C5 1_555 1_555
C6P C4P 1_555 1_555
N1B C5B 1_555 1_555
O1G C6 1_555 1_555
C5G C4 1_555 1_555
N1G C5G 1_555 1_555
O1P C6P 1_555 1_555
C5P C4P 1_555 1_555
N1P C5P 1_555 1_555
O3S C1 1_555 1_555
C3S C2 1_555 1_555
N2S C3S 1_555 1_555
O3EA C1EA 1_555 1_555
C1EA C2EA 1_555 1_555
C2EA C3EA 1_555 1_555
C3EA C3S 1_555 1_555
N2EA C3EA 1_555 1_555
O3J C1EA 1_555 1_555
C3J C3 1_555 1_555
N2J C3J 1_555 1_555
Ti1P O1P 1_555 1_555
O2P Ti1P 1_555 1_555
O3P Ti1P 1_555 1_555
C1P O3P 1_555 1_555
C2P C1P 1_555 1_555
C3P C2P 1_555 1_555
N2P C3P 1_555 1_555
O3C C1P 1_555 1_555
C3C C2P 1_555 1_555
N2C C3C 1_555 1_555
O3O C1Z 1_555 1_555
C1Z C2Z 1_555 1_555
C2Z C3O 1_555 1_555
C3O C3C 1_555 1_555
N2O C3O 1_555 1_555
O3Z C1Z 1_555 1_555
C3Z C3P 1_555 1_555
N2Z C3Z 1_555 1_555
O2A Ti1P 1_555 1_555
Ti1B O1B 1_555 1_555
O4B Ti1B 1_555 1_555
Ti1U O4B 1_555 1_555
O2G Ti1 1_555 1_555
Ti1C O3C 1_555 1_555
Ti1F O4 1_555 1_555
Ti1G O2 1_555 1_555
Ti1EA O3EA 1_555 1_555
Ti1J O3J 1_555 1_555
Ti1M O3Z 1_555 1_555
Ti1X O3O 1_555 1_555
O1U Ti1U 1_555 1_555
O2U Ti1U 1_555 1_555
O2D Ti1U 1_555 1_555
O3A Ti1P 1_555 1_555
O3B Ti1B 1_555 1_555
O3W Ti1B 1_555 1_555
O3U Ti1U 1_555 1_555
O3D Ti1U 1_555 1_555
O3Q Ti1 1_555 1_555
O4P Ti1P 1_555 1_555
O1G Ti1G 1_555 1_555
C5G C5P 1_555 1_555
O3S Ti1F 1_555 1_555
C2EA C3J 1_555 1_555
O2P Ti1B 1_555 1_555
C2Z C3Z 1_555 1_555
O2A Ti1B 1_555 1_555
O2G Ti1G 1_555 1_555
Ti1C O4P 1_555 1_555

#END
