
#######################################################################
#
#                 Cambridge Crystallographic Data Centre
#                                CCDC 
#
#######################################################################
#
# If this CIF has been generated from an entry in the Cambridge 
# Structural Database, then it will include bibliographic, chemical, 
# crystal, experimental, refinement or atomic coordinate data resulting 
# from the CCDC's data processing and validation procedures.
#
#######################################################################

data_DUDVUV
_chemical_formula_moiety         '(C105 H82 O42 Zn6 2-)n'
_symmetry_cell_setting           orthorhombic
_symmetry_space_group_name_H-M   'P m n a'
_symmetry_Int_Tables_number      53
_space_group_name_Hall           '-P 2ac 2'
loop_
_symmetry_equiv_pos_site_id
_symmetry_equiv_pos_as_xyz
1 x,y,z
2 1/2-x,-y,1/2+z
3 1/2-x,y,1/2-z
4 x,-y,-z
5 -x,-y,-z
6 1/2+x,y,1/2-z
7 1/2+x,-y,1/2+z
8 -x,y,z
_cell_length_a                   19.7928(16)
_cell_length_b                   17.7591(14)
_cell_length_c                   28.543(2)
_cell_angle_alpha                90
_cell_angle_beta                 90
_cell_angle_gamma                90
_cell_volume                     10032.9
loop_
_atom_site_label
_atom_site_type_symbol
_atom_site_fract_x
_atom_site_fract_y
_atom_site_fract_z
Zn1 Zn 0.0000 0.33891(3) 0.539922(17)
Zn2 Zn 0.09291(2) 0.22091(2) 0.597931(12)
O1 O 0.0000 0.22965(15) 0.57196(10)
O2 O 0.0000 0.4385(2) 0.50686(14)
O3 O 0.13735(14) 0.60469(13) 0.75551(8)
O4 O 0.18202(13) 0.76344(12) 0.85557(8)
O5 O 0.16119(12) 0.83362(12) 0.74639(9)
O6 O -0.0000 0.71020(17) 0.79394(10)
O7 O 0.07122(15) 0.38417(14) 0.58764(9)
O8 O 0.10901(16) 0.30468(15) 0.64029(9)
O9 O 0.42154(14) 0.69587(14) 0.99646(7)
O10 O 0.35491(14) 0.77027(14) 1.03972(8)
O11 O 0.1934(4) 1.1176(3) 0.6161(2)
O12 O 0.0954(3) 1.1322(3) 0.6382(3)
C1 C 0.0000 0.5000 0.5000
C2 C 0.11919(17) 0.72608(17) 0.78883(11)
C3 C 0.12014(18) 0.68121(17) 0.74440(11)
H1 H 0.0761 0.6830 0.7295
H2 H 0.1531 0.7021 0.7229
C4 C 0.18433(17) 0.71711(18) 0.81504(11)
H3 H 0.1905 0.6649 0.8240
H4 H 0.2220 0.7318 0.7953
C5 C 0.10714(18) 0.80874(18) 0.77547(12)
H5 H 0.0646 0.8135 0.7589
H6 H 0.1049 0.8395 0.8035
C6 C 0.06081(17) 0.70190(17) 0.81962(11)
H7 H 0.0665 0.6498 0.8290
H8 H 0.0593 0.7328 0.8476
C7 C 0.1288(2) 0.55167(19) 0.72136(12)
C8 C 0.09806(18) 0.5643(2) 0.67847(11)
H9 H 0.0836 0.6124 0.6703
C9 C 0.08912(19) 0.5044(2) 0.64798(12)
H10 H 0.0686 0.5127 0.6191
C10 C 0.1097(2) 0.4335(2) 0.65940(12)
C11 C 0.1414(2) 0.4224(2) 0.70150(14)
H11 H 0.1560 0.3742 0.7092
C12 C 0.1523(2) 0.4799(2) 0.73266(14)
H12 H 0.1750 0.4713 0.7607
C13 C 0.0950(2) 0.3697(2) 0.62657(14)
C14 C 0.2305(2) 0.7540(2) 0.88898(12)
C15 C 0.2856(2) 0.7075(2) 0.88580(12)
H13 H 0.2927 0.6797 0.8586
C16 C 0.3306(2) 0.7017(2) 0.92240(13)
H14 H 0.3677 0.6700 0.9194
C17 C 0.3219(2) 0.7415(2) 0.96329(12)
C18 C 0.2665(2) 0.7887(2) 0.96600(13)
H15 H 0.2599 0.8168 0.9931
C19 C 0.2211(2) 0.7956(2) 0.93016(14)
H16 H 0.1841 0.8276 0.9331
C20 C 0.3703(2) 0.7361(2) 1.00263(13)
C21 C 0.1527(2) 0.8995(2) 0.72310(15)
C22 C 0.2026(3) 0.9171(2) 0.69129(16)
H17 H 0.2387 0.8842 0.6872
C23 C 0.1999(3) 0.9821(3) 0.66564(18)
H18 H 0.2355 0.9939 0.6457
C24 C 0.1482(4) 1.0282(3) 0.6686(2)
C25 C 0.0977(3) 1.0122(3) 0.7017(3)
H19 H 0.0613 1.0450 0.7047
C26 C 0.1008(2) 0.9475(2) 0.7304(2)
H20 H 0.0685 0.9384 0.7533
C27 C 0.1415(6) 1.1022(5) 0.6365(3)
O2C O 0.0000 0.5615(2) 0.49314(14)
O3G O -0.13735(14) 0.60469(13) 0.75551(8)
O4G O -0.18202(13) 0.76344(12) 0.85557(8)
O5G O -0.16119(12) 0.83362(12) 0.74639(9)
O7G O -0.07122(15) 0.38417(14) 0.58764(9)
O8G O -0.10901(16) 0.30468(15) 0.64029(9)
O9G O -0.42154(14) 0.69587(14) 0.99646(7)
O10G O -0.35491(14) 0.77027(14) 1.03972(8)
O11G O -0.1934(4) 1.1176(3) 0.6161(2)
O12G O -0.0954(3) 1.1322(3) 0.6382(3)
C2G C -0.11919(17) 0.72608(17) 0.78883(11)
C3G C -0.12014(18) 0.68121(17) 0.74440(11)
H1G H -0.0761 0.6830 0.7295
H2G H -0.1531 0.7021 0.7229
C4G C -0.18433(17) 0.71711(18) 0.81504(11)
H3G H -0.1905 0.6649 0.8240
H4G H -0.2220 0.7318 0.7953
C5G C -0.10714(18) 0.80874(18) 0.77547(12)
H5G H -0.0646 0.8135 0.7589
H6G H -0.1049 0.8395 0.8035
C6G C -0.06081(17) 0.70190(17) 0.81962(11)
H7G H -0.0665 0.6498 0.8290
H8G H -0.0593 0.7328 0.8476
C7G C -0.1288(2) 0.55167(19) 0.72136(12)
C8G C -0.09806(18) 0.5643(2) 0.67847(11)
H9G H -0.0836 0.6124 0.6703
C9G C -0.08912(19) 0.5044(2) 0.64798(12)
H10G H -0.0686 0.5127 0.6191
C10G C -0.1097(2) 0.4335(2) 0.65940(12)
C11G C -0.1414(2) 0.4224(2) 0.70150(14)
H11G H -0.1560 0.3742 0.7092
C12G C -0.1523(2) 0.4799(2) 0.73266(14)
H12G H -0.1750 0.4713 0.7607
C13G C -0.0950(2) 0.3697(2) 0.62657(14)
C14G C -0.2305(2) 0.7540(2) 0.88898(12)
C15G C -0.2856(2) 0.7075(2) 0.88580(12)
H13G H -0.2927 0.6797 0.8586
C16G C -0.3306(2) 0.7017(2) 0.92240(13)
H14G H -0.3677 0.6700 0.9194
C17G C -0.3219(2) 0.7415(2) 0.96329(12)
C18G C -0.2665(2) 0.7887(2) 0.96600(13)
H15G H -0.2599 0.8168 0.9931
C19G C -0.2211(2) 0.7956(2) 0.93016(14)
H16G H -0.1841 0.8276 0.9331
C20G C -0.3703(2) 0.7361(2) 1.00263(13)
C21G C -0.1527(2) 0.8995(2) 0.72310(15)
C22G C -0.2026(3) 0.9171(2) 0.69129(16)
H17G H -0.2387 0.8842 0.6872
C23G C -0.1999(3) 0.9821(3) 0.66564(18)
H18G H -0.2355 0.9939 0.6457
C24G C -0.1482(4) 1.0282(3) 0.6686(2)
C25G C -0.0977(3) 1.0122(3) 0.7017(3)
H19G H -0.0613 1.0450 0.7047
C26G C -0.1008(2) 0.9475(2) 0.7304(2)
H20G H -0.0685 0.9384 0.7533
C27G C -0.1415(6) 1.1022(5) 0.6365(3)
Zn1C Zn 0.0000 0.66109(3) 0.460078(17)
Zn2C Zn 0.09291(2) 0.77909(2) 0.402069(12)
O1C O 0.0000 0.77035(15) 0.42804(10)
O3C O 0.13735(14) 0.39531(13) 0.24449(8)
O4C O 0.18202(13) 0.23656(12) 0.14443(8)
O5C O 0.16119(12) 0.16638(12) 0.25361(9)
O6C O -0.0000 0.28980(17) 0.20606(10)
O7C O 0.07122(15) 0.61583(14) 0.41236(9)
O8C O 0.10901(16) 0.69532(15) 0.35971(9)
O9C O 0.42154(14) 0.30413(14) 0.00354(7)
O10C O 0.35491(14) 0.22973(14) -0.03972(8)
O11C O 0.1934(4) -0.1176(3) 0.3839(2)
O12C O 0.0954(3) -0.1322(3) 0.3618(3)
C2C C 0.11919(17) 0.27392(17) 0.21117(11)
C3C C 0.12014(18) 0.31879(17) 0.25560(11)
H1C H 0.0761 0.3170 0.2705
H2C H 0.1531 0.2979 0.2771
C4C C 0.18433(17) 0.28289(18) 0.18496(11)
H3C H 0.1905 0.3351 0.1760
H4C H 0.2220 0.2682 0.2047
C5C C 0.10714(18) 0.19126(18) 0.22453(12)
H5C H 0.0646 0.1865 0.2411
H6C H 0.1049 0.1605 0.1965
C6C C 0.06081(17) 0.29810(17) 0.18038(11)
H7C H 0.0665 0.3502 0.1710
H8C H 0.0593 0.2672 0.1524
C7C C 0.1288(2) 0.44833(19) 0.27864(12)
C8C C 0.09806(18) 0.4357(2) 0.32153(11)
H9C H 0.0836 0.3876 0.3297
C9C C 0.08912(19) 0.4956(2) 0.35202(12)
H10C H 0.0686 0.4873 0.3809
C10C C 0.1097(2) 0.5665(2) 0.34060(12)
C11C C 0.1414(2) 0.5776(2) 0.29850(14)
H11C H 0.1560 0.6258 0.2908
C12C C 0.1523(2) 0.5201(2) 0.26734(14)
H12C H 0.1750 0.5287 0.2393
C13C C 0.0950(2) 0.6303(2) 0.37343(14)
C14C C 0.2305(2) 0.2460(2) 0.11102(12)
C15C C 0.2856(2) 0.2925(2) 0.11420(12)
H13C H 0.2927 0.3203 0.1414
C16C C 0.3306(2) 0.2983(2) 0.07760(13)
H14C H 0.3677 0.3300 0.0806
C17C C 0.3219(2) 0.2585(2) 0.03671(12)
C18C C 0.2665(2) 0.2113(2) 0.03400(13)
H15C H 0.2599 0.1832 0.0069
C19C C 0.2211(2) 0.2044(2) 0.06984(14)
H16C H 0.1841 0.1724 0.0669
C20C C 0.3703(2) 0.2639(2) -0.00263(13)
C21C C 0.1527(2) 0.1005(2) 0.27690(15)
C22C C 0.2026(3) 0.0829(2) 0.30871(16)
H17C H 0.2387 0.1158 0.3128
C23C C 0.1999(3) 0.0179(3) 0.33436(18)
H18C H 0.2355 0.0061 0.3543
C24C C 0.1482(4) -0.0282(3) 0.3314(2)
C25C C 0.0977(3) -0.0122(3) 0.2983(3)
H19C H 0.0613 -0.0450 0.2953
C26C C 0.1008(2) 0.0525(2) 0.2696(2)
H20C H 0.0685 0.0616 0.2467
C27C C 0.1415(6) -0.1022(5) 0.3635(3)
O3D O -0.13735(14) 0.39531(13) 0.24449(8)
O4D O -0.18202(13) 0.23656(12) 0.14443(8)
O5D O -0.16119(12) 0.16638(12) 0.25361(9)
O7D O -0.07122(15) 0.61583(14) 0.41236(9)
O8D O -0.10901(16) 0.69532(15) 0.35971(9)
O9D O -0.42154(14) 0.30413(14) 0.00354(7)
O10D O -0.35491(14) 0.22973(14) -0.03972(8)
O11D O -0.1934(4) -0.1176(3) 0.3839(2)
O12D O -0.0954(3) -0.1322(3) 0.3618(3)
C2D C -0.11919(17) 0.27392(17) 0.21117(11)
C3D C -0.12014(18) 0.31879(17) 0.25560(11)
H1D H -0.0761 0.3170 0.2705
H2D H -0.1531 0.2979 0.2771
C4D C -0.18433(17) 0.28289(18) 0.18496(11)
H3D H -0.1905 0.3351 0.1760
H4D H -0.2220 0.2682 0.2047
C5D C -0.10714(18) 0.19126(18) 0.22453(12)
H5D H -0.0646 0.1865 0.2411
H6D H -0.1049 0.1605 0.1965
C6D C -0.06081(17) 0.29810(17) 0.18038(11)
H7D H -0.0665 0.3502 0.1710
H8D H -0.0593 0.2672 0.1524
C7D C -0.1288(2) 0.44833(19) 0.27864(12)
C8D C -0.09806(18) 0.4357(2) 0.32153(11)
H9D H -0.0836 0.3876 0.3297
C9D C -0.08912(19) 0.4956(2) 0.35202(12)
H10D H -0.0686 0.4873 0.3809
C10D C -0.1097(2) 0.5665(2) 0.34060(12)
C11D C -0.1414(2) 0.5776(2) 0.29850(14)
H11D H -0.1560 0.6258 0.2908
C12D C -0.1523(2) 0.5201(2) 0.26734(14)
H12D H -0.1750 0.5287 0.2393
C13D C -0.0950(2) 0.6303(2) 0.37343(14)
C14D C -0.2305(2) 0.2460(2) 0.11102(12)
C15D C -0.2856(2) 0.2925(2) 0.11420(12)
H13D H -0.2927 0.3203 0.1414
C16D C -0.3306(2) 0.2983(2) 0.07760(13)
H14D H -0.3677 0.3300 0.0806
C17D C -0.3219(2) 0.2585(2) 0.03671(12)
C18D C -0.2665(2) 0.2113(2) 0.03400(13)
H15D H -0.2599 0.1832 0.0069
C19D C -0.2211(2) 0.2044(2) 0.06984(14)
H16D H -0.1841 0.1724 0.0669
C20D C -0.3703(2) 0.2639(2) -0.00263(13)
C21D C -0.1527(2) 0.1005(2) 0.27690(15)
C22D C -0.2026(3) 0.0829(2) 0.30871(16)
H17D H -0.2387 0.1158 0.3128
C23D C -0.1999(3) 0.0179(3) 0.33436(18)
H18D H -0.2355 0.0061 0.3543
C24D C -0.1482(4) -0.0282(3) 0.3314(2)
C25D C -0.0977(3) -0.0122(3) 0.2983(3)
H19D H -0.0613 -0.0450 0.2953
C26D C -0.1008(2) 0.0525(2) 0.2696(2)
H20D H -0.0685 0.0616 0.2467
C27D C -0.1415(6) -0.1022(5) 0.3635(3)
Zn2D Zn -0.09291(2) 0.77909(2) 0.402069(12)
Zn2G Zn -0.09291(2) 0.22091(2) 0.597931(12)
Zn1A Zn -0.5000 0.66109(3) 1.039922(17)
Zn1A_2 Zn 0.5000 0.66109(3) 1.039922(17)
Zn1B Zn -0.5000 0.33891(3) -0.039922(17)
Zn1B_2 Zn 0.5000 0.33891(3) -0.039922(17)
Zn2_2 Zn 0.09291(2) 1.22091(2) 0.597931(12)
Zn2A Zn 0.40709(2) 0.77909(2) 1.097931(12)
Zn2B Zn 0.40709(2) 0.22091(2) -0.097931(12)
Zn2C_2 Zn 0.09291(2) -0.22091(2) 0.402069(12)
Zn2D_2 Zn -0.09291(2) -0.22091(2) 0.402069(12)
Zn2E Zn -0.40709(2) 0.22091(2) -0.097931(12)
Zn2F Zn -0.40709(2) 0.77909(2) 1.097931(12)
Zn2G_2 Zn -0.09291(2) 1.22091(2) 0.597931(12)
O9A O 0.07846(14) 0.30413(14) 0.49646(7)
O9B O 0.07846(14) 0.69587(14) 0.50354(7)
O9E O -0.07846(14) 0.69587(14) 0.50354(7)
O9F O -0.07846(14) 0.30413(14) 0.49646(7)
O10A O 0.14509(14) 0.22973(14) 0.53972(8)
O10B O 0.14509(14) 0.77027(14) 0.46028(8)
O10E O -0.14509(14) 0.77027(14) 0.46028(8)
O10F O -0.14509(14) 0.22973(14) 0.53972(8)
O12_2 O 0.0954(3) 0.1322(3) 0.6382(3)
O12C_2 O 0.0954(3) 0.8678(3) 0.3618(3)
O12D_2 O -0.0954(3) 0.8678(3) 0.3618(3)
O12G_2 O -0.0954(3) 0.1322(3) 0.6382(3)
loop_
_geom_bond_atom_site_label_1
_geom_bond_atom_site_label_2
_geom_bond_site_symmetry_1
_geom_bond_site_symmetry_2
Zn1 O1 1_555 1_555
Zn2 O1 1_555 1_555
O1 Zn2G 1_555 1_555
O2 Zn1 1_555 1_555
O3 C3 1_555 1_555
O4 C4 1_555 1_555
O5 C5 1_555 1_555
O6 C6 1_555 1_555
O7 Zn1 1_555 1_555
O8 Zn2 1_555 1_555
O9 C20 1_555 1_555
O10 C20 1_555 1_555
O11 C27 1_555 1_555
O12 C27 1_555 1_555
C1 O2 1_555 1_555
C2 C3 1_555 1_555
C3 H1 1_555 1_555
H2 C3 1_555 1_555
C4 C2 1_555 1_555
H3 C4 1_555 1_555
H4 C4 1_555 1_555
C5 C2 1_555 1_555
H5 C5 1_555 1_555
H6 C5 1_555 1_555
C6 C2 1_555 1_555
H7 C6 1_555 1_555
H8 C6 1_555 1_555
C7 O3 1_555 1_555
C8 C7 1_555 1_555
H9 C8 1_555 1_555
C9 C8 1_555 1_555
H10 C9 1_555 1_555
C10 C9 1_555 1_555
C11 C10 1_555 1_555
H11 C11 1_555 1_555
C12 C7 1_555 1_555
H12 C12 1_555 1_555
C13 O7 1_555 1_555
C14 O4 1_555 1_555
C15 C14 1_555 1_555
H13 C15 1_555 1_555
C16 C15 1_555 1_555
H14 C16 1_555 1_555
C17 C16 1_555 1_555
C18 C17 1_555 1_555
H15 C18 1_555 1_555
C19 C14 1_555 1_555
H16 C19 1_555 1_555
C20 C17 1_555 1_555
C21 O5 1_555 1_555
C22 C21 1_555 1_555
H17 C22 1_555 1_555
C23 C22 1_555 1_555
H18 C23 1_555 1_555
C24 C23 1_555 1_555
C25 C24 1_555 1_555
H19 C25 1_555 1_555
C26 C21 1_555 1_555
H20 C26 1_555 1_555
C27 C24 1_555 1_555
O2C C1 1_555 1_555
O3G C3G 1_555 1_555
O4G C4G 1_555 1_555
O5G C5G 1_555 1_555
O7G Zn1 1_555 1_555
O8G C13G 1_555 1_555
O9G C20G 1_555 1_555
O10G C20G 1_555 1_555
O11G C27G 1_555 1_555
O12G C27G 1_555 1_555
C2G C3G 1_555 1_555
C3G H1G 1_555 1_555
H2G C3G 1_555 1_555
C4G C2G 1_555 1_555
H3G C4G 1_555 1_555
H4G C4G 1_555 1_555
C5G C2G 1_555 1_555
H5G C5G 1_555 1_555
H6G C5G 1_555 1_555
C6G O6 1_555 1_555
H7G C6G 1_555 1_555
H8G C6G 1_555 1_555
C7G O3G 1_555 1_555
C8G C7G 1_555 1_555
H9G C8G 1_555 1_555
C9G C8G 1_555 1_555
H10G C9G 1_555 1_555
C10G C9G 1_555 1_555
C11G C10G 1_555 1_555
H11G C11G 1_555 1_555
C12G C7G 1_555 1_555
H12G C12G 1_555 1_555
C13G O7G 1_555 1_555
C14G O4G 1_555 1_555
C15G C14G 1_555 1_555
H13G C15G 1_555 1_555
C16G C15G 1_555 1_555
H14G C16G 1_555 1_555
C17G C16G 1_555 1_555
C18G C17G 1_555 1_555
H15G C18G 1_555 1_555
C19G C14G 1_555 1_555
H16G C19G 1_555 1_555
C20G C17G 1_555 1_555
C21G O5G 1_555 1_555
C22G C21G 1_555 1_555
H17G C22G 1_555 1_555
C23G C22G 1_555 1_555
H18G C23G 1_555 1_555
C24G C23G 1_555 1_555
C25G C24G 1_555 1_555
H19G C25G 1_555 1_555
C26G C21G 1_555 1_555
H20G C26G 1_555 1_555
C27G C24G 1_555 1_555
Zn1C O2C 1_555 1_555
Zn2C O1C 1_555 1_555
O1C Zn1C 1_555 1_555
O3C C3C 1_555 1_555
O4C C4C 1_555 1_555
O5C C5C 1_555 1_555
O6C C6C 1_555 1_555
O7C Zn1C 1_555 1_555
O8C Zn2C 1_555 1_555
O9C C20C 1_555 1_555
O10C C20C 1_555 1_555
O11C C27C 1_555 1_555
O12C C27C 1_555 1_555
C2C C3C 1_555 1_555
C3C H1C 1_555 1_555
H2C C3C 1_555 1_555
C4C C2C 1_555 1_555
H3C C4C 1_555 1_555
H4C C4C 1_555 1_555
C5C C2C 1_555 1_555
H5C C5C 1_555 1_555
H6C C5C 1_555 1_555
C6C C2C 1_555 1_555
H7C C6C 1_555 1_555
H8C C6C 1_555 1_555
C7C O3C 1_555 1_555
C8C C7C 1_555 1_555
H9C C8C 1_555 1_555
C9C C8C 1_555 1_555
H10C C9C 1_555 1_555
C10C C9C 1_555 1_555
C11C C10C 1_555 1_555
H11C C11C 1_555 1_555
C12C C7C 1_555 1_555
H12C C12C 1_555 1_555
C13C O7C 1_555 1_555
C14C O4C 1_555 1_555
C15C C14C 1_555 1_555
H13C C15C 1_555 1_555
C16C C15C 1_555 1_555
H14C C16C 1_555 1_555
C17C C16C 1_555 1_555
C18C C17C 1_555 1_555
H15C C18C 1_555 1_555
C19C C14C 1_555 1_555
H16C C19C 1_555 1_555
C20C C17C 1_555 1_555
C21C O5C 1_555 1_555
C22C C21C 1_555 1_555
H17C C22C 1_555 1_555
C23C C22C 1_555 1_555
H18C C23C 1_555 1_555
C24C C23C 1_555 1_555
C25C C24C 1_555 1_555
H19C C25C 1_555 1_555
C26C C21C 1_555 1_555
H20C C26C 1_555 1_555
C27C C24C 1_555 1_555
O3D C3D 1_555 1_555
O4D C4D 1_555 1_555
O5D C5D 1_555 1_555
O7D Zn1C 1_555 1_555
O8D C13D 1_555 1_555
O9D C20D 1_555 1_555
O10D C20D 1_555 1_555
O11D C27D 1_555 1_555
O12D C27D 1_555 1_555
C2D C3D 1_555 1_555
C3D H1D 1_555 1_555
H2D C3D 1_555 1_555
C4D C2D 1_555 1_555
H3D C4D 1_555 1_555
H4D C4D 1_555 1_555
C5D C2D 1_555 1_555
H5D C5D 1_555 1_555
H6D C5D 1_555 1_555
C6D O6C 1_555 1_555
H7D C6D 1_555 1_555
H8D C6D 1_555 1_555
C7D O3D 1_555 1_555
C8D C7D 1_555 1_555
H9D C8D 1_555 1_555
C9D C8D 1_555 1_555
H10D C9D 1_555 1_555
C10D C9D 1_555 1_555
C11D C10D 1_555 1_555
H11D C11D 1_555 1_555
C12D C7D 1_555 1_555
H12D C12D 1_555 1_555
C13D O7D 1_555 1_555
C14D O4D 1_555 1_555
C15D C14D 1_555 1_555
H13D C15D 1_555 1_555
C16D C15D 1_555 1_555
H14D C16D 1_555 1_555
C17D C16D 1_555 1_555
C18D C17D 1_555 1_555
H15D C18D 1_555 1_555
C19D C14D 1_555 1_555
H16D C19D 1_555 1_555
C20D C17D 1_555 1_555
C21D O5D 1_555 1_555
C22D C21D 1_555 1_555
H17D C22D 1_555 1_555
C23D C22D 1_555 1_555
H18D C23D 1_555 1_555
C24D C23D 1_555 1_555
C25D C24D 1_555 1_555
H19D C25D 1_555 1_555
C26D C21D 1_555 1_555
H20D C26D 1_555 1_555
C27D C24D 1_555 1_555
Zn2D O1C 1_555 1_555
Zn2G O8G 1_555 1_555
Zn1A O9G 1_555 1_555
Zn1A_2 O9 1_555 1_555
Zn1B O9D 1_555 1_555
Zn1B_2 O9C 1_555 1_555
Zn2_2 O12 1_555 1_555
Zn2A O10 1_555 1_555
Zn2B O10C 1_555 1_555
Zn2C_2 O12C 1_555 1_555
Zn2D_2 O12D 1_555 1_555
Zn2E O10D 1_555 1_555
Zn2F O10G 1_555 1_555
Zn2G_2 O12G 1_555 1_555
O9A Zn1 1_555 1_555
O9B Zn1C 1_555 1_555
O9E Zn1C 1_555 1_555
O9F Zn1 1_555 1_555
O10A Zn2 1_555 1_555
O10B Zn2C 1_555 1_555
O10E Zn2D 1_555 1_555
O10F Zn2G 1_555 1_555
O12_2 Zn2 1_555 1_555
O12C_2 Zn2C 1_555 1_555
O12D_2 Zn2D 1_555 1_555
O12G_2 Zn2G 1_555 1_555
O8 C13 1_555 1_555
C10 C13 1_555 1_555
C11 C12 1_555 1_555
C18 C19 1_555 1_555
C25 C26 1_555 1_555
C2G C6G 1_555 1_555
C10G C13G 1_555 1_555
C11G C12G 1_555 1_555
C18G C19G 1_555 1_555
C25G C26G 1_555 1_555
O8C C13C 1_555 1_555
C10C C13C 1_555 1_555
C11C C12C 1_555 1_555
C18C C19C 1_555 1_555
C25C C26C 1_555 1_555
O8D Zn2D 1_555 1_555
C2D C6D 1_555 1_555
C10D C13D 1_555 1_555
C11D C12D 1_555 1_555
C18D C19D 1_555 1_555
C25D C26D 1_555 1_555

#END
