
#######################################################################
#
#                 Cambridge Crystallographic Data Centre
#                                CCDC 
#
#######################################################################
#
# If this CIF has been generated from an entry in the Cambridge 
# Structural Database, then it will include bibliographic, chemical, 
# crystal, experimental, refinement or atomic coordinate data resulting 
# from the CCDC's data processing and validation procedures.
#
#######################################################################

data_GIKQIC
_chemical_formula_moiety         '(C12 H18 Cd1 N6 O8 S1)n'
_symmetry_cell_setting           orthorhombic
_symmetry_space_group_name_H-M   'P 21 21 21'
_symmetry_Int_Tables_number      19
_space_group_name_Hall           'P 2ac 2ab'
loop_
_symmetry_equiv_pos_site_id
_symmetry_equiv_pos_as_xyz
1 x,y,z
2 1/2-x,-y,1/2+z
3 -x,1/2+y,1/2-z
4 1/2+x,1/2-y,-z
_cell_length_a                   5.703(5)
_cell_length_b                   10.623(10)
_cell_length_c                   29.89(3)
_cell_angle_alpha                90
_cell_angle_beta                 90
_cell_angle_gamma                90
_cell_volume                     1810.82
loop_
_atom_site_label
_atom_site_type_symbol
_atom_site_fract_x
_atom_site_fract_y
_atom_site_fract_z
Cd1 Cd 0.17520(4) 0.992939(18) 0.239146(6)
C1 C 0.4407(7) 0.8957(4) 0.15124(11)
H1 H 0.5482 0.8684 0.1725
C2 C 0.4938(7) 0.8806(4) 0.10661(11)
H2 H 0.6346 0.8432 0.0983
C3 C 0.3383(7) 0.9208(3) 0.07407(10)
C4 C 0.1267(7) 0.9717(4) 0.08823(11)
H3 H 0.0143 0.9970 0.0676
C5 C 0.0858(6) 0.9842(4) 0.13381(10)
H4 H -0.0556 1.0192 0.1430
C6 C 0.4067(7) 0.9048(4) 0.02690(11)
C7 C 0.4266(7) 0.9036(4) -0.04562(11)
C8 C 0.3863(6) 0.9205(3) -0.09382(10)
C9 C 0.1863(7) 0.9751(4) -0.11265(11)
H5 H 0.0626 1.0010 -0.0946
C10 C 0.1758(6) 0.9899(4) -0.15851(11)
H6 H 0.0425 1.0269 -0.1707
C11 C 0.5595(7) 0.8793(4) -0.12315(11)
H7 H 0.6927 0.8395 -0.1121
C12 C 0.5345(7) 0.8972(4) -0.16832(10)
H8 H 0.6528 0.8689 -0.1872
N1 N 0.2396(5) 0.9485(3) 0.16519(8)
N2 N 0.3470(6) 0.9537(3) -0.18647(9)
N3 N 0.0827(10) 1.0035(10) -0.01285(14)
H9 H 0.0495 1.0356 0.0139
H10 H -0.0309 0.9509 -0.0211
N4 N 0.6032(9) 0.8494(7) 0.01582(12)
N5 N 0.6111(10) 0.8459(7) -0.03105(12)
N6 N 0.2921(6) 0.9393(3) -0.01074(9)
O1 O -0.0695(4) 1.1614(2) 0.22180(9)
O2 O -0.4538(4) 1.0846(2) 0.24156(9)
O3 O -0.3751(4) 1.3078(2) 0.24108(8)
O4 O -0.3919(6) 1.1930(3) 0.17122(8)
O5 O -0.1440(4) 0.8607(2) 0.23817(11)
S1 S -0.32707(14) 1.18660(6) 0.21826(2)
Cd1_2 Cd -0.82480(4) 0.992939(18) 0.239146(6)
Cd1A Cd 0.32480(4) 1.007061(18) -0.260854(6)
Cd1B Cd -0.17520(4) 1.492939(18) 0.260854(6)
N2A N 0.1530(6) 1.0463(3) 0.31353(9)
O2_2 O 0.5462(4) 1.0846(2) 0.24156(9)
O3B O 0.3751(4) 0.8078(2) 0.25892(8)
O6 O 0.672(4) 0.2066(11) 0.9492(4)
O7 O 0.6793(10) 0.2021(5) 0.85949(19)
O8 O 0.689(3) 0.2097(13) 0.0703(7)
loop_
_geom_bond_atom_site_label_1
_geom_bond_atom_site_label_2
_geom_bond_site_symmetry_1
_geom_bond_site_symmetry_2
Cd1 N1 1_555 1_555
C1 H1 1_555 1_555
C2 C1 1_555 1_555
H2 C2 1_555 1_555
C3 C2 1_555 1_555
C4 C3 1_555 1_555
H3 C4 1_555 1_555
C5 C4 1_555 1_555
H4 C5 1_555 1_555
C6 C3 1_555 1_555
C7 C8 1_555 1_555
C8 C9 1_555 1_555
C9 H5 1_555 1_555
C10 C9 1_555 1_555
H6 C10 1_555 1_555
C11 C8 1_555 1_555
H7 C11 1_555 1_555
C12 C11 1_555 1_555
H8 C12 1_555 1_555
N1 C1 1_555 1_555
N2 C10 1_555 1_555
N3 H9 1_555 1_555
H10 N3 1_555 1_555
N4 C6 1_555 1_555
N5 C7 1_555 1_555
N6 C6 1_555 1_555
O1 Cd1 1_555 1_555
O2 S1 1_555 1_555
O3 S1 1_555 1_555
O4 S1 1_555 1_555
O5 Cd1 1_555 1_555
S1 O1 1_555 1_555
Cd1_2 O2 1_555 1_555
Cd1A N2 1_555 1_555
Cd1B O3 1_555 1_555
N2A Cd1 1_555 1_555
O2_2 Cd1 1_555 1_555
O3B Cd1 1_555 1_555
C5 N1 1_555 1_555
C7 N6 1_555 1_555
C12 N2 1_555 1_555
N3 N6 1_555 1_555
N4 N5 1_555 1_555

#END
