
#######################################################################
#
#                 Cambridge Crystallographic Data Centre
#                                CCDC 
#
#######################################################################
#
# If this CIF has been generated from an entry in the Cambridge 
# Structural Database, then it will include bibliographic, chemical, 
# crystal, experimental, refinement or atomic coordinate data resulting 
# from the CCDC's data processing and validation procedures.
#
#######################################################################

data_FARBOS
_chemical_formula_moiety         '(C16 H6 O10 P1 Zn2)n'
_symmetry_cell_setting           orthorhombic
_symmetry_space_group_name_H-M   'P b c n'
_symmetry_Int_Tables_number      60
_space_group_name_Hall           '-P 2n 2ab'
loop_
_symmetry_equiv_pos_site_id
_symmetry_equiv_pos_as_xyz
1 x,y,z
2 1/2-x,1/2-y,1/2+z
3 1/2+x,1/2-y,-z
4 -x,y,1/2-z
5 -x,-y,-z
6 1/2+x,1/2+y,1/2-z
7 1/2-x,1/2+y,z
8 x,-y,1/2+z
_cell_length_a                   10.7239(3)
_cell_length_b                   15.3597(3)
_cell_length_c                   17.7316(3)
_cell_angle_alpha                90
_cell_angle_beta                 90
_cell_angle_gamma                90
_cell_volume                     2920.68
loop_
_atom_site_label
_atom_site_type_symbol
_atom_site_fract_x
_atom_site_fract_y
_atom_site_fract_z
Zn1 Zn 0.42798(3) 0.650197(19) 0.842661(14)
P1 P -0.0000 0.98466(5) 0.7500
O1 O -0.09269(16) 1.03624(11) 0.70388(9)
O2 O 0.0158(2) 0.90007(13) 0.45768(9)
O3 O 0.3376(2) 0.73382(12) 0.77744(9)
O4 O 0.40308(19) 0.69904(14) 0.66143(9)
O5 O 0.1803(2) 0.82279(15) 0.43673(9)
C1 C 0.1103(3) 0.86166(16) 0.48113(13)
C2 C 0.2430(2) 0.80216(15) 0.67338(12)
C3 C 0.3356(3) 0.73993(16) 0.70675(12)
C4 C 0.1372(3) 0.86137(15) 0.56458(12)
C5 C 0.2260(3) 0.80540(15) 0.59500(12)
H1 H 0.2749 0.7696 0.5628
C6 C 0.0870(2) 0.91396(15) 0.68903(12)
C7 C 0.1728(2) 0.85601(15) 0.71964(11)
H2 H 0.1834 0.8533 0.7728
C8 C 0.0686(2) 0.91564(15) 0.61101(12)
H3 H 0.0087 0.9541 0.5898
O1C O 0.09269(16) 1.03624(11) 0.79612(9)
O2C O -0.0158(2) 0.90007(13) 1.04232(9)
O3C O -0.3376(2) 0.73382(12) 0.72256(9)
O4C O -0.40308(19) 0.69904(14) 0.83857(9)
O5C O -0.1803(2) 0.82279(15) 1.06327(9)
C1C C -0.1103(3) 0.86166(16) 1.01887(13)
C2C C -0.2430(2) 0.80216(15) 0.82662(12)
C3C C -0.3356(3) 0.73993(16) 0.79325(12)
C4C C -0.1372(3) 0.86137(15) 0.93542(12)
C5C C -0.2260(3) 0.80540(15) 0.90500(12)
H1C H -0.2749 0.7696 0.9372
C6C C -0.0870(2) 0.91396(15) 0.81097(12)
C7C C -0.1728(2) 0.85601(15) 0.78036(11)
H2C H -0.1834 0.8533 0.7272
C8C C -0.0686(2) 0.91564(15) 0.88899(12)
H3C H -0.0087 0.9541 0.9102
Zn1C Zn -0.42798(3) 0.650197(19) 0.657339(14)
Zn1_2 Zn -0.57202(3) 0.650197(19) 0.842661(14)
Zn1A Zn 0.07202(3) 0.849803(19) 0.342661(14)
Zn1B Zn -0.07202(3) 0.849803(19) 1.157339(14)
Zn1C_2 Zn 0.57202(3) 0.650197(19) 0.657339(14)
Zn1E Zn -0.07202(3) 1.150197(19) 0.657339(14)
Zn1F Zn 0.07202(3) 1.150197(19) 0.842661(14)
O1E O 0.40731(16) 0.53624(11) 0.79612(9)
O1F O -0.40731(16) 0.53624(11) 0.70388(9)
O2A O 0.4842(2) 0.59993(13) 0.95768(9)
O2B O -0.4842(2) 0.59993(13) 0.54232(9)
O4_2 O -0.59692(19) 0.69904(14) 0.66143(9)
O4C_2 O 0.59692(19) 0.69904(14) 0.83857(9)
O5A O 0.3197(2) 0.67721(15) 0.93673(9)
O5B O -0.3197(2) 0.67721(15) 0.56327(9)
loop_
_geom_bond_atom_site_label_1
_geom_bond_atom_site_label_2
_geom_bond_site_symmetry_1
_geom_bond_site_symmetry_2
Zn1 O3 1_555 1_555
P1 O1 1_555 1_555
O1 Zn1E 1_555 1_555
O2 C1 1_555 1_555
O3 C3 1_555 1_555
O4 C3 1_555 1_555
O5 C1 1_555 1_555
C1 C4 1_555 1_555
C2 C3 1_555 1_555
C4 C5 1_555 1_555
C5 C2 1_555 1_555
H1 C5 1_555 1_555
C6 P1 1_555 1_555
C7 C2 1_555 1_555
H2 C7 1_555 1_555
C8 C4 1_555 1_555
H3 C8 1_555 1_555
O1C P1 1_555 1_555
O2C C1C 1_555 1_555
O3C C3C 1_555 1_555
O4C C3C 1_555 1_555
O5C C1C 1_555 1_555
C1C C4C 1_555 1_555
C2C C3C 1_555 1_555
C4C C5C 1_555 1_555
C5C C2C 1_555 1_555
H1C C5C 1_555 1_555
C6C P1 1_555 1_555
C7C C2C 1_555 1_555
H2C C7C 1_555 1_555
C8C C4C 1_555 1_555
H3C C8C 1_555 1_555
Zn1C O3C 1_555 1_555
Zn1_2 O4C 1_555 1_555
Zn1A O2 1_555 1_555
Zn1B O2C 1_555 1_555
Zn1C_2 O4 1_555 1_555
Zn1F O1C 1_555 1_555
O1E Zn1 1_555 1_555
O1F Zn1C 1_555 1_555
O2A Zn1 1_555 1_555
O2B Zn1C 1_555 1_555
O4_2 Zn1C 1_555 1_555
O4C_2 Zn1 1_555 1_555
O5A Zn1 1_555 1_555
O5B Zn1C 1_555 1_555
O5 Zn1A 1_555 1_555
C6 C7 1_555 1_555
C6 C8 1_555 1_555
O5C Zn1B 1_555 1_555
C6C C7C 1_555 1_555
C6C C8C 1_555 1_555

#END
