
#######################################################################
#
#                 Cambridge Crystallographic Data Centre
#                                CCDC 
#
#######################################################################
#
# If this CIF has been generated from an entry in the Cambridge 
# Structural Database, then it will include bibliographic, chemical, 
# crystal, experimental, refinement or atomic coordinate data resulting 
# from the CCDC's data processing and validation procedures.
#
#######################################################################

data_LUWKIZ
_chemical_formula_moiety         '(C48 H24 Cd3 O16 2-)n'
_symmetry_cell_setting           orthorhombic
_symmetry_space_group_name_H-M   'F d d 2'
_symmetry_Int_Tables_number      43
_space_group_name_Hall           'F 2 -2d'
loop_
_symmetry_equiv_pos_site_id
_symmetry_equiv_pos_as_xyz
1 x,y,z
2 -x,-y,z
3 1/4+x,1/4-y,1/4+z
4 1/4-x,1/4+y,1/4+z
5 x,1/2+y,1/2+z
6 -x,1/2-y,1/2+z
7 1/4+x,3/4-y,3/4+z
8 1/4-x,3/4+y,3/4+z
9 1/2+x,y,1/2+z
10 1/2-x,-y,1/2+z
11 3/4+x,1/4-y,3/4+z
12 3/4-x,1/4+y,3/4+z
13 1/2+x,1/2+y,z
14 1/2-x,1/2-y,z
15 3/4+x,3/4-y,1/4+z
16 3/4-x,3/4+y,1/4+z
_cell_length_a                   32.7812(11)
_cell_length_b                   34.5802(9)
_cell_length_c                   25.0561(7)
_cell_angle_alpha                90
_cell_angle_beta                 90
_cell_angle_gamma                90
_cell_volume                     28403.1
loop_
_atom_site_label
_atom_site_type_symbol
_atom_site_fract_x
_atom_site_fract_y
_atom_site_fract_z
_atom_site_U_iso_or_equiv
_atom_site_thermal_displace_type
Cd1 Cd 0.140255(18) -0.001854(14) 0.07975(2) 0.0353 Uani
Cd2 Cd 0.248846(19) 0.058166(18) -0.14326(3) 0.0455 Uani
Cd3 Cd 0.192545(19) 0.025342(17) -0.03529(3) 0.0440 Uani
C1 C 0.3638(6) 0.1545(5) -0.1604(9) 0.2090 Uani
H1 H 0.3579 0.1500 -0.1246 0.2520 Uiso
C2 C 0.3458(5) 0.1428(4) -0.2514(10) 0.3433 Uani
H2 H 0.3334 0.1300 -0.2797 0.4110 Uiso
C3 C 0.2777(4) -0.1344(3) -0.0204(4) 0.0630 Uani
C4 C 0.2603(8) -0.1129(7) -0.1071(8) 0.1690 Uani
H3 H 0.2436 -0.0966 -0.1269 0.2010 Uiso
C5 C 0.3741(6) 0.1731(6) -0.2565(7) 0.4733 Uani
C6 C 0.4285(4) 0.2193(4) -0.2386(5) 0.0867 Uani
H4 H 0.4447 0.2332 -0.2150 0.1040 Uiso
C7 C 0.3982(7) 0.1817(7) -0.1673(7) 0.3050 Uani
H5 H 0.4148 0.1906 -0.1398 0.3680 Uiso
C8 C 0.3386(5) 0.1344(4) -0.1936(9) 0.2340 Uani
C9 C 0.4069(4) 0.2069(4) -0.3282(4) 0.1063 Uani
H6 H 0.4094 0.2111 -0.3647 0.1280 Uiso
C10 C 0.4023(6) 0.1920(7) -0.2200(6) 0.3933 Uani
C11 C 0.2625(5) -0.1165(5) -0.0574(6) 0.1000 Uani
C12 C 0.3779(5) 0.1797(5) -0.3089(7) 0.1693 Uani
H7 H 0.3614 0.1664 -0.3329 0.2040 Uiso
C13 C 0.2473(5) -0.1059(4) 0.0411(12) 0.1423 Uani
H8 H 0.2407 -0.1045 0.0772 0.1690 Uiso
C14 C 0.3061(5) 0.1059(5) -0.1758(7) 0.1290 Uani
C15 C 0.2915(5) -0.1420(5) -0.1265(13) 0.1800 Uani
H9 H 0.2974 -0.1429 -0.1628 0.2170 Uiso
C16 C 0.1395(5) -0.0605(4) -0.1659(5) 0.1000 Uani
H10 H 0.1388 -0.0594 -0.1289 0.1200 Uiso
C17 C 0.2259(4) -0.0811(3) 0.0120(9) 0.1020 Uani
C18 C 0.2292(5) -0.0839(4) -0.0379(9) 0.1160 Uani
H11 H 0.2141 -0.0689 -0.0616 0.1390 Uiso
C19 C 0.2819(4) 0.1342(4) 0.0996(5) 0.0767 Uani
H12 H 0.2985 0.1478 0.0761 0.0920 Uiso
C20 C 0.3098(5) -0.1657(4) -0.0394(9) 0.1057 Uani
H13 H 0.3249 -0.1802 -0.0152 0.1270 Uiso
C21 C 0.1168(4) -0.0856(4) -0.1900(5) 0.0833 Uani
H14 H 0.1011 -0.1025 -0.1698 0.1000 Uiso
C22 C 0.3408(4) -0.1979(4) -0.1190(7) 0.0793 Uani
C23 C 0.2761(6) -0.1326(5) 0.0315(7) 0.1093 Uani
H15 H 0.2913 -0.1466 0.0561 0.1310 Uiso
C24 C 0.3139(4) -0.1701(4) -0.0894(7) 0.0957 Uani
C25 C 0.1969(3) -0.0528(2) 0.0393(5) 0.0567 Uani
C26 C 0.3157(3) 0.1667(3) 0.1748(4) 0.0583 Uani
H16 H 0.3323 0.1806 0.1514 0.0700 Uiso
C27 C 0.2655(3) 0.1266(4) 0.2448(4) 0.0687 Uani
H17 H 0.2491 0.1129 0.2685 0.0830 Uiso
C28 C 0.1153(3) -0.0881(3) -0.2458(4) 0.0573 Uani
C29 C 0.1148(4) -0.0922(3) -0.3564(5) 0.0707 Uani
H18 H 0.1166 -0.0957 -0.3932 0.0850 Uiso
C30 C 0.1388(4) -0.0649(4) -0.3320(5) 0.0817 Uani
H19 H 0.1544 -0.0481 -0.3524 0.0980 Uiso
C31 C 0.2862(3) 0.1408(3) 0.1533(4) 0.0520 Uani
C32 C 0.1652(3) -0.0373(3) -0.2475(4) 0.0573 Uani
H20 H 0.1830 -0.0214 -0.2662 0.0690 Uiso
C33 C 0.1396(4) -0.0623(3) -0.2756(4) 0.0657 Uani
C34 C 0.2925(4) 0.1509(3) 0.2636(4) 0.0647 Uani
H21 H 0.2943 0.1552 0.3002 0.0780 Uiso
C35 C 0.2541(4) 0.1083(3) 0.0787(5) 0.0657 Uani
H22 H 0.2521 0.1044 0.0421 0.0790 Uiso
C36 C 0.1646(4) -0.0355(3) -0.1930(4) 0.0657 Uani
C37 C 0.4632(3) 0.2539(3) -0.3143(6) 0.0647 Uani
C38 C 0.3501(3) 0.1992(3) 0.2487(5) 0.0550 Uani
C39 C 0.0878(3) -0.1149(3) -0.3268(4) 0.0557 Uani
C40 C 0.2607(3) 0.1205(3) 0.1884(4) 0.0473 Uani
C41 C 0.2318(3) 0.0928(3) 0.1691(4) 0.0573 Uani
H23 H 0.2157 0.0786 0.1925 0.0690 Uiso
C42 C 0.2287(3) 0.0878(3) 0.1152(4) 0.0497 Uani
C43 C 0.0898(3) -0.1148(3) -0.2741(4) 0.0570 Uani
H24 H 0.0742 -0.1325 -0.2550 0.0690 Uiso
C44 C 0.4310(2) 0.2266(3) -0.2936(5) 0.0787 Uani
C45 C 0.3204(3) 0.1717(3) 0.2261(4) 0.0500 Uani
C46 C 0.0601(3) -0.1435(2) -0.3548(4) 0.0497 Uani
C47 C 0.1895(4) -0.0040(3) -0.1642(5) 0.0620 Uani
C48 C 0.1981(3) 0.0587(2) 0.0944(4) 0.0477 Uani
O1 O 0.2985(4) 0.1084(4) -0.1279(6) 0.1210 Uani
O2 O 0.2875(4) 0.0855(3) -0.2097(6) 0.1190 Uani
O3 O 0.1884(3) -0.0038(2) -0.1150(4) 0.0847 Uani
O4 O 0.4904(2) 0.2657(2) -0.2848(4) 0.0740 Uani
O5 O 0.3644(3) -0.2207(2) -0.0900(4) 0.0760 Uani
O6 O 0.4592(3) 0.2630(3) -0.3626(5) 0.0870 Uani
O7 O 0.2125(3) 0.0170(2) -0.1919(3) 0.0773 Uani
O8 O 0.3493(2) 0.2084(2) 0.2959(3) 0.0660 Uani
O9 O 0.3760(2) 0.21271(19) 0.2148(4) 0.0653 Uani
O10 O 0.1971(3) 0.0542(2) 0.0453(3) 0.0790 Uani
O11 O 0.0558(3) -0.1409(2) -0.4032(3) 0.0760 Uani
O12 O 0.1763(2) -0.03040(18) 0.0110(3) 0.0523 Uani
O13 O 0.0405(2) -0.16718(17) -0.3269(3) 0.0573 Uani
O14 O 0.3415(2) -0.2003(2) -0.1678(4) 0.0673 Uani
O15 O 0.1945(3) -0.0522(2) 0.0873(4) 0.0810 Uani
O16 O 0.1783(2) 0.0396(2) 0.1259(3) 0.0613 Uani
Cd1B Cd 0.390255(18) 0.251854(14) 0.32975(2) 0.0353 Uani
Cd1F Cd 0.390255(18) -0.248146(14) -0.17025(2) 0.0353 Uani
Cd2G Cd 0.001154(19) -0.191834(18) -0.39326(3) 0.0455 Uani
Cd2K Cd 0.501154(19) 0.308166(18) -0.39326(3) 0.0455 Uani
Cd3B Cd 0.442545(19) 0.224658(17) 0.21471(3) 0.0440 Uani
Cd3G Cd 0.057455(19) -0.224658(17) -0.28529(3) 0.0440 Uani
Cd3K Cd 0.557455(19) 0.275342(17) -0.28529(3) 0.0440 Uani
O4O O 0.2596(2) 0.0157(2) -0.0348(4) 0.0740 Uani
O5N O 0.1144(3) -0.0293(2) 0.1600(4) 0.0760 Uani
O6O O 0.2908(3) 0.0130(3) -0.1126(5) 0.0870 Uani
O8J O 0.0993(2) 0.0416(2) 0.0459(3) 0.0660 Uani
O9J O 0.1260(2) 0.03729(19) -0.0352(4) 0.0653 Uani
O11C O 0.1942(3) 0.1091(2) -0.1532(3) 0.0760 Uani
O13C O 0.2095(2) 0.08282(17) -0.0769(3) 0.0573 Uani
O14N O 0.0915(2) -0.0497(2) 0.0822(4) 0.0673 Uani
loop_
_atom_site_aniso_label
_atom_site_aniso_U_11
_atom_site_aniso_U_22
_atom_site_aniso_U_33
_atom_site_aniso_U_23
_atom_site_aniso_U_13
_atom_site_aniso_U_12
Cd1 0.0352(3) 0.0336(3) 0.0372(3) 0.0014(2) 0.0012(3) -0.0003(2)
Cd2 0.0435(4) 0.0442(3) 0.0489(4) -0.0021(3) 0.0102(3) -0.0044(3)
Cd3 0.0434(3) 0.0483(3) 0.0404(3) -0.0037(3) 0.0033(3) -0.0015(3)
C1 0.135(18) 0.082(11) 0.41(5) 0.058(19) 0.16(3) -0.013(12)
C2 0.21(3) 0.23(3) 0.59(8) 0.30(4) 0.29(4) 0.16(2)
C3 0.069(7) 0.065(6) 0.055(7) 0.009(5) -0.009(5) 0.002(5)
C4 0.22(2) 0.18(2) 0.107(15) 0.066(14) -0.100(16) -0.13(2)
C5 0.25(4) 0.16(2) 1.01(15) 0.31(5) 0.45(7) 0.14(3)
C6 0.073(9) 0.105(10) 0.082(10) 0.010(8) 0.002(7) -0.011(8)
C7 0.125(19) 0.22(3) 0.57(7) 0.26(4) 0.16(3) 0.080(19)
C8 0.098(14) 0.054(8) 0.55(6) 0.066(18) 0.15(2) 0.008(9)
C9 0.050(7) 0.085(9) 0.184(18) 0.031(10) 0.004(9) -0.014(7)
C10 0.23(4) 0.35(5) 0.60(7) 0.40(6) 0.33(5) 0.19(3)
C11 0.120(12) 0.117(11) 0.063(8) 0.019(8) -0.028(8) -0.067(10)
C12 0.096(13) 0.082(11) 0.33(4) -0.018(16) 0.070(18) -0.044(10)
C13 0.073(10) 0.064(9) 0.29(3) -0.021(13) 0.038(13) 0.021(8)
C14 0.087(12) 0.070(10) 0.23(3) 0.024(14) 0.030(16) -0.018(8)
C15 0.081(11) 0.099(12) 0.36(4) -0.130(19) 0.050(17) 0.018(10)
C16 0.130(13) 0.121(11) 0.049(7) -0.020(7) -0.007(8) -0.039(10)
C17 0.041(6) 0.045(6) 0.22(2) -0.039(9) 0.029(9) -0.004(5)
C18 0.099(11) 0.065(8) 0.184(18) -0.073(10) 0.078(13) -0.014(7)
C19 0.066(7) 0.097(8) 0.067(7) 0.007(6) -0.002(6) -0.024(7)
C20 0.091(10) 0.084(9) 0.142(15) -0.047(10) 0.042(11) -0.015(8)
C21 0.081(8) 0.110(9) 0.059(7) -0.025(7) 0.008(6) -0.044(8)
C22 0.045(6) 0.075(8) 0.118(12) -0.039(8) 0.032(7) -0.031(6)
C23 0.138(15) 0.095(10) 0.095(12) -0.011(8) -0.008(11) 0.036(10)
C24 0.056(7) 0.091(9) 0.140(13) -0.079(9) 0.046(8) -0.029(7)
C25 0.048(6) 0.027(4) 0.095(9) -0.005(5) 0.035(6) 0.007(4)
C26 0.057(6) 0.062(6) 0.056(6) -0.002(5) 0.005(5) -0.004(5)
C27 0.060(6) 0.101(8) 0.045(6) -0.031(6) -0.002(5) -0.033(6)
C28 0.066(6) 0.050(5) 0.056(6) -0.015(4) -0.009(5) -0.017(5)
C29 0.081(8) 0.064(6) 0.067(7) -0.009(5) 0.005(6) -0.011(6)
C30 0.102(9) 0.090(8) 0.053(6) -0.022(6) 0.010(6) -0.057(7)
C31 0.058(6) 0.054(5) 0.044(5) -0.008(4) -0.008(4) -0.002(5)
C32 0.072(7) 0.042(5) 0.058(6) -0.008(4) 0.004(5) -0.009(5)
C33 0.084(8) 0.068(6) 0.045(6) -0.003(5) -0.003(5) -0.027(6)
C34 0.076(7) 0.074(7) 0.044(6) -0.023(5) -0.008(5) -0.010(6)
C35 0.077(7) 0.068(6) 0.052(6) 0.001(5) -0.006(6) -0.017(5)
C36 0.093(9) 0.053(5) 0.051(6) -0.009(4) 0.019(6) -0.008(6)
C37 0.043(6) 0.047(5) 0.104(10) -0.009(6) 0.033(7) 0.002(5)
C38 0.043(5) 0.046(5) 0.076(7) 0.001(5) -0.011(5) 0.002(4)
C39 0.061(6) 0.041(4) 0.065(6) -0.004(4) -0.024(5) -0.022(4)
C40 0.054(5) 0.048(5) 0.040(5) -0.012(4) -0.008(4) -0.009(4)
C41 0.043(5) 0.076(6) 0.053(6) -0.022(5) -0.006(4) -0.008(5)
C42 0.049(5) 0.053(5) 0.047(5) -0.005(4) -0.021(4) -0.015(4)
C43 0.053(6) 0.046(5) 0.072(8) -0.004(4) -0.010(5) -0.007(4)
C44 0.015(4) 0.099(8) 0.122(12) 0.034(8) -0.009(6) 0.021(5)
C45 0.038(5) 0.059(5) 0.053(6) -0.003(4) -0.003(4) -0.001(4)
C46 0.055(6) 0.037(4) 0.057(6) -0.007(4) -0.024(5) -0.002(4)
C47 0.057(7) 0.062(6) 0.067(7) -0.034(5) 0.001(6) -0.005(5)
C48 0.048(5) 0.044(4) 0.051(6) -0.017(4) -0.010(4) 0.001(4)
O1 0.089(7) 0.121(9) 0.153(12) 0.008(8) 0.046(8) -0.045(7)
O2 0.104(8) 0.100(8) 0.153(11) 0.041(7) 0.092(8) 0.026(7)
O3 0.117(8) 0.074(5) 0.063(5) -0.035(4) 0.002(5) -0.035(5)
O4 0.048(4) 0.085(5) 0.089(6) -0.012(5) 0.017(4) -0.020(4)
O5 0.073(5) 0.078(5) 0.077(6) -0.020(4) 0.008(5) 0.002(5)
O6 0.080(6) 0.083(5) 0.098(8) 0.014(5) 0.012(6) -0.015(5)
O7 0.093(6) 0.072(5) 0.067(5) -0.017(4) -0.010(5) -0.031(5)
O8 0.058(4) 0.053(4) 0.087(6) -0.017(4) -0.019(4) -0.006(3)
O9 0.045(4) 0.061(4) 0.090(5) -0.001(4) -0.016(4) -0.006(3)
O10 0.090(6) 0.084(5) 0.063(5) -0.033(4) -0.002(4) -0.013(5)
O11 0.094(6) 0.067(4) 0.067(5) 0.006(4) -0.027(4) -0.041(4)
O12 0.049(4) 0.049(3) 0.059(4) -0.001(3) 0.027(3) 0.003(3)
O13 0.058(4) 0.036(3) 0.078(5) 0.004(3) -0.023(4) -0.011(3)
O14 0.069(5) 0.064(4) 0.069(5) -0.020(4) 0.002(4) 0.028(4)
O15 0.069(5) 0.069(5) 0.105(8) 0.002(5) 0.006(5) 0.023(4)
O16 0.062(4) 0.072(4) 0.050(4) -0.008(3) -0.009(4) -0.020(4)
Cd1B 0.0352 0.0336 0.0372 -0.0014 0.0012 0.0003
Cd1F 0.0352 0.0336 0.0372 -0.0014 0.0012 0.0003
Cd2G 0.0435 0.0442 0.0489 -0.0021 -0.0102 0.0044
Cd2K 0.0435 0.0442 0.0489 -0.0021 -0.0102 0.0044
Cd3B 0.0434 0.0483 0.0404 0.0037 0.0033 0.0015
Cd3G 0.0434 0.0483 0.0404 -0.0037 -0.0033 0.0015
Cd3K 0.0434 0.0483 0.0404 -0.0037 -0.0033 0.0015
O4O 0.048 0.085 0.089 -0.012 -0.017 0.02
O5N 0.073 0.078 0.077 0.02 0.008 -0.002
O6O 0.08 0.083 0.098 0.014 -0.012 0.015
O8J 0.058 0.053 0.087 0.017 -0.019 0.006
O9J 0.045 0.061 0.09 0.001 -0.016 0.006
O11C 0.094 0.067 0.067 0.006 0.027 0.041
O13C 0.058 0.036 0.078 0.004 0.023 0.011
O14N 0.069 0.064 0.069 0.02 0.002 -0.028
loop_
_geom_bond_atom_site_label_1
_geom_bond_atom_site_label_2
_geom_bond_site_symmetry_1
_geom_bond_site_symmetry_2
Cd1 O12 1_555 1_555
Cd2 O1 1_555 1_555
Cd3 O3 1_555 1_555
C1 H1 1_555 1_555
C2 H2 1_555 1_555
C3 C11 1_555 1_555
C4 H3 1_555 1_555
C5 C2 1_555 1_555
C6 H4 1_555 1_555
C7 C1 1_555 1_555
H5 C7 1_555 1_555
C8 C1 1_555 1_555
C9 H6 1_555 1_555
C10 C5 1_555 1_555
C11 C4 1_555 1_555
C12 C5 1_555 1_555
H7 C12 1_555 1_555
C13 H8 1_555 1_555
C14 C8 1_555 1_555
C15 C4 1_555 1_555
H9 C15 1_555 1_555
C16 H10 1_555 1_555
C17 C13 1_555 1_555
C18 C11 1_555 1_555
H11 C18 1_555 1_555
C19 H12 1_555 1_555
C20 C3 1_555 1_555
H13 C20 1_555 1_555
C21 C16 1_555 1_555
H14 C21 1_555 1_555
C22 C24 1_555 1_555
C23 C3 1_555 1_555
H15 C23 1_555 1_555
C24 C15 1_555 1_555
C25 C17 1_555 1_555
C26 H16 1_555 1_555
C27 H17 1_555 1_555
C28 C21 1_555 1_555
C29 H18 1_555 1_555
C30 C29 1_555 1_555
H19 C30 1_555 1_555
C31 C19 1_555 1_555
C32 H20 1_555 1_555
C33 C28 1_555 1_555
C34 C27 1_555 1_555
H21 C34 1_555 1_555
C35 C19 1_555 1_555
H22 C35 1_555 1_555
C36 C16 1_555 1_555
C37 C44 1_555 1_555
C38 C45 1_555 1_555
C39 C29 1_555 1_555
C40 C27 1_555 1_555
C41 C40 1_555 1_555
H23 C41 1_555 1_555
C42 C35 1_555 1_555
C43 C28 1_555 1_555
H24 C43 1_555 1_555
C44 C6 1_555 1_555
C45 C26 1_555 1_555
C46 C39 1_555 1_555
C47 C36 1_555 1_555
C48 C42 1_555 1_555
O1 C14 1_555 1_555
O2 Cd2 1_555 1_555
O3 C47 1_555 1_555
O4 C37 1_555 1_555
O5 C22 1_555 1_555
O6 C37 1_555 1_555
O7 Cd2 1_555 1_555
O8 C38 1_555 1_555
O9 C38 1_555 1_555
O10 Cd3 1_555 1_555
O11 C46 1_555 1_555
O12 Cd3 1_555 1_555
O13 C46 1_555 1_555
O14 C22 1_555 1_555
O15 Cd1 1_555 1_555
O16 Cd1 1_555 1_555
Cd1B O8 1_555 1_555
Cd1F O5 1_555 1_555
Cd2G O11 1_555 1_555
Cd2K O6 1_555 1_555
Cd3B O9 1_555 1_555
Cd3G O13 1_555 1_555
Cd3K O4 1_555 1_555
O4O Cd3 1_555 1_555
O5N Cd1 1_555 1_555
O6O Cd2 1_555 1_555
O8J Cd1 1_555 1_555
O9J Cd3 1_555 1_555
O11C Cd2 1_555 1_555
O13C Cd2 1_555 1_555
O14N Cd1 1_555 1_555
Cd3 O13C 1_555 1_555
C2 C8 1_555 1_555
C6 C10 1_555 1_555
C7 C10 1_555 1_555
C9 C12 1_555 1_555
C9 C44 1_555 1_555
C13 C23 1_555 1_555
C14 O2 1_555 1_555
C17 C18 1_555 1_555
C20 C24 1_555 1_555
C25 O12 1_555 1_555
C25 O15 1_555 1_555
C26 C31 1_555 1_555
C30 C33 1_555 1_555
C31 C40 1_555 1_555
C32 C33 1_555 1_555
C32 C36 1_555 1_555
C34 C45 1_555 1_555
C39 C43 1_555 1_555
C41 C42 1_555 1_555
C47 O7 1_555 1_555
C48 O10 1_555 1_555
C48 O16 1_555 1_555
O13 Cd2G 1_555 1_555
O14 Cd1F 1_555 1_555

#END
