
#######################################################################
#
#                 Cambridge Crystallographic Data Centre
#                                CCDC 
#
#######################################################################
#
# If this CIF has been generated from an entry in the Cambridge 
# Structural Database, then it will include bibliographic, chemical, 
# crystal, experimental, refinement or atomic coordinate data resulting 
# from the CCDC's data processing and validation procedures.
#
#######################################################################

data_LUWKEV
_chemical_formula_moiety         '(C16 H8 Cd1 O8 2-)n'
_symmetry_cell_setting           hexagonal
_symmetry_space_group_name_H-M   'P 64 2 2'
_symmetry_Int_Tables_number      181
_space_group_name_Hall           'P 64 2 (0 0 2)'
loop_
_symmetry_equiv_pos_site_id
_symmetry_equiv_pos_as_xyz
1 x,y,z
2 -y,x-y,1/3+z
3 -x+y,-x,2/3+z
4 -x,-y,z
5 y,-x+y,1/3+z
6 x-y,x,2/3+z
7 y,x,1/3-z
8 x-y,-y,-z
9 -x,-x+y,2/3-z
10 -y,-x,1/3-z
11 -x+y,y,-z
12 x,x-y,2/3-z
_cell_length_a                   15.227(2)
_cell_length_b                   15.227(2)
_cell_length_c                   12.5453(10)
_cell_angle_alpha                90
_cell_angle_beta                 90
_cell_angle_gamma                120
_cell_volume                     2519.07
loop_
_atom_site_label
_atom_site_type_symbol
_atom_site_fract_x
_atom_site_fract_y
_atom_site_fract_z
Cd1 Cd 0.5000 0.0000 0.0000
C1 C 0.4177(8) 0.1791(8) 0.2880(7)
H1 H 0.3565 0.1296 0.2592
C2 C 0.5947(7) 0.2678(6) 0.2922(5)
H2 H 0.6561 0.2767 0.2672
C3 C 0.5050(9) 0.1949(7) 0.2457(5)
C4 C 0.5129(8) 0.1323(6) 0.1557(6)
O1 O 0.5908(7) 0.1428(6) 0.1277(5)
O2 O 0.4265(6) 0.0687(5) 0.1138(5)
C1K C 0.4177(8) 0.2386(11) 0.3787(7)
H1K H 0.3565 0.2269 0.4075
C2K C 0.5947(7) 0.3269(9) 0.3745(5)
H2K H 0.6561 0.3794 0.3995
C3K C 0.5050(9) 0.3101(11) 0.4210(5)
C4K C 0.5129(8) 0.3806(10) 0.5110(6)
O1K O 0.5908(7) 0.4480(9) 0.5390(5)
O2K O 0.4265(6) 0.3578(8) 0.5529(5)
C1C C 0.5823(8) -0.1791(8) 0.2880(7)
H1C H 0.6435 -0.1296 0.2592
C2C C 0.4053(7) -0.2678(6) 0.2922(5)
H2C H 0.3439 -0.2767 0.2672
C3C C 0.4950(9) -0.1949(7) 0.2457(5)
C4C C 0.4871(8) -0.1323(6) 0.1557(6)
O1C O 0.4092(7) -0.1428(6) 0.1277(5)
O2C O 0.5735(6) -0.0687(5) 0.1138(5)
C1H C 0.5823(8) -0.2386(11) 0.3787(7)
H1H H 0.6435 -0.2269 0.4075
C2H C 0.4053(7) -0.3269(9) 0.3745(5)
H2H H 0.3439 -0.3794 0.3995
C3H C 0.4950(9) -0.3101(11) 0.4210(5)
C4H C 0.4871(8) -0.3806(10) 0.5110(6)
O1H O 0.4092(7) -0.4480(9) 0.5390(5)
O2H O 0.5735(6) -0.3578(8) 0.5529(5)
Cd1B Cd 0.5000 -0.5000 0.6667
Cd1B_2 Cd 0.5000 0.5000 0.6667
O1G O 0.4480(9) -0.1428(6) -0.1277(5)
O1J O 0.5520(9) 0.1428(6) -0.1277(5)
O2G O 0.3578(8) -0.0687(5) -0.1138(5)
O2J O 0.6422(8) 0.0687(5) -0.1138(5)
loop_
_geom_bond_atom_site_label_1
_geom_bond_atom_site_label_2
_geom_bond_site_symmetry_1
_geom_bond_site_symmetry_2
Cd1 O1 1_555 1_555
C1 H1 1_555 1_555
C2 H2 1_555 1_555
C3 C1 1_555 1_555
C4 C3 1_555 1_555
O1 C4 1_555 1_555
O2 Cd1 1_555 1_555
C1K C1 1_555 1_555
H1K C1K 1_555 1_555
C2K C2 1_555 1_555
H2K C2K 1_555 1_555
C3K C1K 1_555 1_555
C4K C3K 1_555 1_555
O1K C4K 1_555 1_555
O2K C4K 1_555 1_555
C1C H1C 1_555 1_555
C2C H2C 1_555 1_555
C3C C1C 1_555 1_555
C4C C3C 1_555 1_555
O1C Cd1 1_555 1_555
O2C Cd1 1_555 1_555
C1H C1C 1_555 1_555
H1H C1H 1_555 1_555
C2H C2C 1_555 1_555
H2H C2H 1_555 1_555
C3H C1H 1_555 1_555
C4H C3H 1_555 1_555
O1H C4H 1_555 1_555
O2H C4H 1_555 1_555
Cd1B O1H 1_555 1_555
Cd1B_2 O1K 1_555 1_555
O1G Cd1 1_555 1_555
O1J Cd1 1_555 1_555
O2G Cd1 1_555 1_555
O2J Cd1 1_555 1_555
C2 C3 1_555 1_555
C4 O2 1_555 1_555
C2K C3K 1_555 1_555
O2K Cd1B_2 1_555 1_555
C2C C3C 1_555 1_555
C4C O1C 1_555 1_555
C4C O2C 1_555 1_555
C2H C3H 1_555 1_555
O2H Cd1B 1_555 1_555

#END
