
#######################################################################
#
#                 Cambridge Crystallographic Data Centre
#                                CCDC 
#
#######################################################################
#
# If this CIF has been generated from an entry in the Cambridge 
# Structural Database, then it will include bibliographic, chemical, 
# crystal, experimental, refinement or atomic coordinate data resulting 
# from the CCDC's data processing and validation procedures.
#
#######################################################################

data_VEMMEG
_chemical_formula_moiety         'C27 H15 Mn2 N18 O5'
_symmetry_cell_setting           triclinic
_symmetry_space_group_name_H-M   'P -1'
_symmetry_Int_Tables_number      2
_space_group_name_Hall           '-P 1'
loop_
_symmetry_equiv_pos_site_id
_symmetry_equiv_pos_as_xyz
1 x,y,z
2 -x,-y,-z
_cell_length_a                   11.693(3)
_cell_length_b                   11.994(5)
_cell_length_c                   13.753(3)
_cell_angle_alpha                92.97(3)
_cell_angle_beta                 114.36(2)
_cell_angle_gamma                108.354(17)
_cell_volume                     1630.46
loop_
_atom_site_label
_atom_site_type_symbol
_atom_site_fract_x
_atom_site_fract_y
_atom_site_fract_z
_atom_site_U_iso_or_equiv
_atom_site_thermal_displace_type
O4 O 0.4221(14) -0.3519(12) 0.2471(11) 0.0680 Uiso
N16 N 0.614(3) -0.379(3) 0.325(2) 0.0580 Uiso
C23 C 0.491(3) -0.399(2) 0.270(2) 0.0300 Uiso
C26 C 0.650(6) -0.498(5) 0.322(5) 0.1140 Uiso
C27 C 0.707(4) -0.276(4) 0.337(3) 0.1630 Uiso
O6 O 0.065(3) -0.350(3) -0.387(2) 0.1980 Uiso
Mn1 Mn 0.10740(9) -0.27154(8) -0.04643(8) 0.0235 Uani
Mn2 Mn 0.0000 0.0000 0.0000 0.0150 Uani
O1 O 0.2905(5) -0.2285(5) -0.0685(5) 0.0502 Uani
O2 O 0.0157(7) -0.4256(5) -0.1709(5) 0.0567 Uani
O3 O 0.1685(5) -0.3837(4) 0.0689(4) 0.0340 Uani
N1 N -0.1752(5) -0.3886(4) -0.0290(4) 0.0280 Uani
N2 N -0.0831(5) -0.2892(4) -0.0307(4) 0.0241 Uani
N3 N -0.1191(5) -0.1968(4) -0.0212(4) 0.0214 Uani
N4 N -0.2341(5) -0.2339(4) -0.0134(4) 0.0258 Uani
N5 N 0.0144(5) 0.0066(4) -0.2225(4) 0.0255 Uani
N6 N 0.0344(5) -0.0507(4) -0.1396(4) 0.0241 Uani
N7 N 0.0545(5) -0.1493(5) -0.1630(4) 0.0260 Uani
N8 N 0.0509(6) -0.1576(5) -0.2612(4) 0.0300 Uani
N9 N 0.3027(5) -0.1335(5) 0.1983(4) 0.0311 Uani
N10 N 0.2125(5) -0.1243(5) 0.1038(4) 0.0259 Uani
N11 N 0.1873(5) -0.0262(5) 0.1191(4) 0.0254 Uani
N12 N 0.2611(5) 0.0302(5) 0.2235(4) 0.0279 Uani
N13 N 0.3705(12) -0.2067(13) -0.2009(10) 0.0636 Uani
N15 N -0.0922(18) -0.6067(11) -0.2911(10) 0.1672 Uani
C1 C -0.2665(6) -0.3511(5) -0.0185(5) 0.0253 Uani
C2 C -0.3865(6) -0.4294(5) -0.0100(6) 0.0275 Uani
C3 C -0.3952(8) -0.5362(7) 0.0216(9) 0.0646 Uani
H1 H -0.3232 -0.5616 0.0375 0.0770 Uiso
C4 C -0.4932(9) -0.3915(7) -0.0311(9) 0.0664 Uani
H2 H -0.4898 -0.3182 -0.0514 0.0790 Uiso
C5 C 0.0257(6) -0.0606(6) -0.2962(5) 0.0284 Uani
C6 C 0.0114(6) -0.0308(6) -0.4010(5) 0.0273 Uani
C7 C 0.0684(8) -0.0750(7) -0.4576(6) 0.0378 Uani
H3 H 0.1136 -0.1262 -0.4298 0.0450 Uiso
C8 C -0.0577(7) 0.0425(7) -0.4445(5) 0.0382 Uani
H4 H -0.0978 0.0707 -0.4079 0.0460 Uiso
C9 C 0.3287(6) -0.0396(6) 0.2699(5) 0.0295 Uani
C10 C 0.4187(6) -0.0170(6) 0.3872(5) 0.0328 Uani
C11 C 0.4152(7) 0.0628(7) 0.4615(5) 0.0430 Uani
H5 H 0.3590 0.1060 0.4368 0.0520 Uiso
C12 C 0.5047(8) -0.0786(8) 0.4268(6) 0.0438 Uani
H6 H 0.5091 -0.1316 0.3780 0.0530 Uiso
C13 C 0.2746(13) -0.2604(12) -0.1749(11) 0.0440 Uiso
C15 C 0.347(2) -0.2327(18) -0.3181(16) 0.0890 Uiso
C17 C 0.5030(18) -0.1189(17) -0.1224(16) 0.0660 Uiso
C19 C -0.0797(17) -0.4833(16) -0.2418(14) 0.0620 Uiso
C21 C 0.001(3) -0.680(3) -0.263(3) 0.2690 Uiso
C22 C -0.225(3) -0.660(2) -0.388(2) 0.2130 Uiso
N3A N 0.1191(5) 0.1968(4) 0.0212(4) 0.0214 Uani
N6A N -0.0344(5) 0.0507(4) 0.1396(4) 0.0241 Uani
N11A N -0.1873(5) 0.0262(5) -0.1191(4) 0.0254 Uani
C3A C -0.6048(8) -0.4638(7) -0.0216(9) 0.0646 Uani
C4A C -0.5068(9) -0.6085(7) 0.0311(9) 0.0664 Uani
C7A C -0.0684(8) 0.0750(7) -0.5424(6) 0.0378 Uani
C8A C 0.0577(7) -0.0425(7) -0.5555(5) 0.0382 Uani
C11A C 0.5848(7) -0.0628(7) 0.5385(5) 0.0430 Uani
C12A C 0.4953(8) 0.0786(8) 0.5732(6) 0.0438 Uani
loop_
_atom_site_aniso_label
_atom_site_aniso_U_11
_atom_site_aniso_U_22
_atom_site_aniso_U_33
_atom_site_aniso_U_23
_atom_site_aniso_U_13
_atom_site_aniso_U_12
Mn1 0.0223(5) 0.0225(5) 0.0319(6) 0.0101(4) 0.0163(4) 0.0097(4)
Mn2 0.0142(6) 0.0171(6) 0.0140(6) 0.0048(5) 0.0073(5) 0.0046(5)
O1 0.038(3) 0.055(3) 0.084(4) 0.039(3) 0.041(3) 0.028(3)
O2 0.079(5) 0.033(3) 0.052(4) -0.007(3) 0.038(3) 0.004(3)
O3 0.044(3) 0.031(3) 0.042(3) 0.016(2) 0.027(2) 0.021(2)
N1 0.025(3) 0.024(3) 0.045(3) 0.015(2) 0.024(3) 0.009(2)
N2 0.017(3) 0.022(3) 0.036(3) 0.008(2) 0.015(2) 0.006(2)
N3 0.021(3) 0.020(3) 0.026(3) 0.009(2) 0.014(2) 0.006(2)
N4 0.022(3) 0.026(3) 0.034(3) 0.010(2) 0.017(2) 0.008(2)
N5 0.031(3) 0.028(3) 0.020(3) 0.009(2) 0.014(2) 0.010(2)
N6 0.027(3) 0.029(3) 0.020(3) 0.009(2) 0.013(2) 0.011(2)
N7 0.033(3) 0.031(3) 0.021(3) 0.009(2) 0.016(2) 0.015(2)
N8 0.040(3) 0.036(3) 0.026(3) 0.012(2) 0.023(3) 0.017(3)
N9 0.022(3) 0.041(3) 0.026(3) 0.016(2) 0.005(2) 0.013(2)
N10 0.020(3) 0.028(3) 0.028(3) 0.011(2) 0.010(2) 0.007(2)
N11 0.017(3) 0.031(3) 0.024(3) 0.009(2) 0.008(2) 0.005(2)
N12 0.021(3) 0.042(3) 0.019(3) 0.009(2) 0.007(2) 0.012(2)
N13 0.057(8) 0.111(11) 0.067(8) 0.045(8) 0.053(7) 0.048(8)
N15 0.227(16) 0.103(9) 0.083(8) -0.045(7) 0.105(10) -0.087(10)
C1 0.020(3) 0.021(3) 0.034(4) 0.010(3) 0.012(3) 0.006(2)
C2 0.022(3) 0.024(3) 0.045(4) 0.012(3) 0.022(3) 0.009(3)
C3 0.052(5) 0.044(5) 0.148(9) 0.054(5) 0.076(6) 0.033(4)
C4 0.056(5) 0.032(4) 0.150(9) 0.049(5) 0.070(6) 0.028(4)
C5 0.029(3) 0.033(3) 0.032(4) 0.012(3) 0.020(3) 0.013(3)
C6 0.032(3) 0.036(4) 0.017(3) 0.009(3) 0.014(3) 0.012(3)
C7 0.052(4) 0.046(4) 0.035(4) 0.020(3) 0.029(4) 0.028(4)
C8 0.054 0.056 0.026 0.013 0.028 0.033
C9 0.021(3) 0.036(4) 0.029(4) 0.011(3) 0.011(3) 0.007(3)
C10 0.022(3) 0.048(4) 0.022(3) 0.013(3) 0.005(3) 0.011(3)
C11 0.036(4) 0.064(5) 0.025(4) 0.009(3) 0.001(3) 0.031(4)
C12 0.042 0.065 0.025 0.008 0.009 0.029
N3A 0.021 0.02 0.026 0.009 0.014 0.006
N6A 0.027 0.029 0.02 0.009 0.013 0.011
N11A 0.017 0.031 0.024 0.009 0.008 0.005
C3A 0.052 0.044 0.148 0.054 0.076 0.033
C4A 0.056 0.032 0.15 0.049 0.07 0.028
C7A 0.052 0.046 0.035 0.02 0.029 0.028
C8A 0.054(5) 0.056(5) 0.026(4) 0.013(3) 0.028(3) 0.033(4)
C11A 0.036 0.064 0.025 0.009 0.001 0.031
C12A 0.042(4) 0.065(5) 0.025(4) 0.008(3) 0.009(3) 0.029(4)
loop_
_geom_bond_atom_site_label_1
_geom_bond_atom_site_label_2
_geom_bond_site_symmetry_1
_geom_bond_site_symmetry_2
Mn1 O1 1_555 1_555
Mn2 N3 1_555 1_555
O1 C13 1_555 1_555
O2 Mn1 1_555 1_555
O3 Mn1 1_555 1_555
O4 C23 1_555 1_555
N1 N2 1_555 1_555
N2 Mn1 1_555 1_555
N3 N2 1_555 1_555
N4 N3 1_555 1_555
N5 N6 1_555 1_555
N6 Mn2 1_555 1_555
N7 Mn1 1_555 1_555
N8 N7 1_555 1_555
N9 N10 1_555 1_555
N10 Mn1 1_555 1_555
N11 Mn2 1_555 1_555
N12 N11 1_555 1_555
N13 C13 1_555 1_555
N15 C19 1_555 1_555
N16 C23 1_555 1_555
C1 N1 1_555 1_555
C2 C1 1_555 1_555
C3 C2 1_555 1_555
H1 C3 1_555 1_555
C4 C2 1_555 1_555
H2 C4 1_555 1_555
C5 N5 1_555 1_555
C6 C5 1_555 1_555
C7 C6 1_555 1_555
H3 C7 1_555 1_555
C8 C6 1_555 1_555
H4 C8 1_555 1_555
C9 N9 1_555 1_555
C10 C9 1_555 1_555
C11 C10 1_555 1_555
H5 C11 1_555 1_555
C12 C10 1_555 1_555
H6 C12 1_555 1_555
C15 N13 1_555 1_555
C17 N13 1_555 1_555
C19 O2 1_555 1_555
C21 N15 1_555 1_555
C22 N15 1_555 1_555
C26 N16 1_555 1_555
C27 N16 1_555 1_555
N3A Mn2 1_555 1_555
N6A Mn2 1_555 1_555
N11A Mn2 1_555 1_555
C3A C4 1_555 1_555
C4A C3 1_555 1_555
C7A C8 1_555 1_555
C8A C7 1_555 1_555
C11A C12 1_555 1_555
C12A C11 1_555 1_555
N4 C1 1_555 1_555
N6 N7 1_555 1_555
N8 C5 1_555 1_555
N10 N11 1_555 1_555
N12 C9 1_555 1_555

#END
