
#######################################################################
#
#                 Cambridge Crystallographic Data Centre
#                                CCDC 
#
#######################################################################
#
# If this CIF has been generated from an entry in the Cambridge 
# Structural Database, then it will include bibliographic, chemical, 
# crystal, experimental, refinement or atomic coordinate data resulting 
# from the CCDC's data processing and validation procedures.
#
#######################################################################

data_VEMMAC
_chemical_formula_moiety         '(C38 H52 N28 O8 Zn3)n'
_symmetry_cell_setting           triclinic
_symmetry_space_group_name_H-M   'P -1'
_symmetry_Int_Tables_number      2
_space_group_name_Hall           '-P 1'
loop_
_symmetry_equiv_pos_site_id
_symmetry_equiv_pos_as_xyz
1 x,y,z
2 -x,-y,-z
_cell_length_a                   11.5713(19)
_cell_length_b                   11.736(2)
_cell_length_c                   13.619(2)
_cell_angle_alpha                92.869(13)
_cell_angle_beta                 114.443(14)
_cell_angle_gamma                107.988(15)
_cell_volume                     1567.27
loop_
_atom_site_label
_atom_site_type_symbol
_atom_site_fract_x
_atom_site_fract_y
_atom_site_fract_z
Zn1 Zn 0.0000 0.5000 0.0000
Zn2 Zn -0.10439(6) 0.76608(5) 0.04639(5)
O1 O -0.2840(4) 0.7284(4) 0.0683(4)
O2 O -0.1605(4) 0.8805(3) -0.0640(3)
O3 O -0.0130(5) 0.9202(4) 0.1676(4)
C2 C -0.5190(15) 0.5864(13) 0.0828(12)
C4 C -0.656(3) 0.578(2) -0.133(2)
C6 C -0.4111(19) 0.6846(17) -0.0333(15)
C7 C 0.2630(5) 0.8492(4) 0.0158(4)
C8 C 0.0896(15) 1.1426(10) 0.2946(12)
H1 H 0.0076 1.1081 0.2265
H2 H 0.1448 1.2202 0.2899
H3 H 0.0667 1.1539 0.3537
C9 C 0.2965(17) 1.0920(16) 0.4064(11)
H4 H 0.2981 1.1259 0.4728
H5 H 0.3633 1.1504 0.3917
H6 H 0.3167 1.0186 0.4150
C10 C -0.0272(5) 0.5578(5) 0.2919(4)
C11 C -0.3291(5) 0.5387(5) -0.2679(5)
C13 C -0.0137(6) 0.5287(5) 0.3986(4)
C16 C -0.4185(5) 0.5170(5) -0.3872(5)
C17 C 0.3968(7) 1.0409(6) -0.0146(9)
H10 H 0.3277 1.0707 -0.0250
C18 C -0.0708(6) 0.5747(5) 0.4550(5)
H11 H -0.1195 0.6246 0.4250
C19 C -0.4114(6) 0.4390(6) -0.4622(5)
H12 H -0.3512 0.3977 -0.4372
C20 C 0.0552(6) 0.4536(6) 0.4436(5)
H13 H 0.0923 0.4209 0.4056
C21 C 0.3854(5) 0.9275(5) 0.0088(5)
C22 C -0.5077(6) 0.5781(6) -0.4270(5)
H14 H -0.5130 0.6317 -0.3777
C23 C 0.4871(7) 0.8875(6) 0.0229(9)
H15 H 0.4802 0.8102 0.0386
C24 C 0.0956(12) 0.9540(8) 0.2397(8)
H16 H 0.1435 0.9016 0.2479
N2 N -0.5214(19) 0.6132(17) -0.0226(15)
N3 N -0.3016(4) 0.6363(4) -0.1955(4)
N4 N 0.1703(4) 0.8873(3) 0.0278(4)
N5 N -0.0558(4) 0.6468(4) 0.1576(4)
N6 N -0.0141(4) 0.4895(4) 0.2190(3)
N7 N -0.2100(4) 0.6258(4) -0.0998(4)
N8 N -0.0326(4) 0.5473(3) 0.1355(3)
N9 N 0.0795(4) 0.7871(3) 0.0295(3)
N10 N 0.1153(4) 0.6927(3) 0.0193(3)
N11 N -0.1851(4) 0.5252(3) -0.1142(3)
N12 N 0.2309(4) 0.7282(3) 0.0107(4)
N13 N -0.0534(5) 0.6560(4) 0.2567(4)
N15 N 0.1619(11) 1.0633(7) 0.3148(8)
N16 N -0.2601(4) 0.4677(4) -0.2202(4)
Zn1_2 Zn 1.0000 1.5000 0.0000
Zn1_3 Zn 0.0000 0.5000 1.0000
Zn1_4 Zn -1.0000 0.5000 -1.0000
Zn2A Zn 0.10439(6) 0.23392(5) 0.95361(5)
Zn2A_2 Zn 1.10439(6) 1.23392(5) -0.04639(5)
Zn2A_3 Zn -0.89561(6) 0.23392(5) -1.04639(5)
O1A O 0.2840(4) 0.2716(4) 0.9317(4)
O2A O 0.1605(4) 0.1195(3) 1.0640(3)
O3A O 0.0130(5) 0.0798(4) 0.8324(4)
C2A C 0.5190(15) 0.4136(13) 0.9172(12)
C4A C 0.656(3) 0.422(2) 1.133(2)
C6A C 0.4111(19) 0.3154(17) 1.0333(15)
C7A C 0.7370(5) 1.1508(4) -0.0158(4)
C8A C -0.0896(15) -0.1426(10) 0.7054(12)
H1A H -0.0076 -0.1081 0.7735
H2A H -0.1448 -0.2202 0.7101
H3A H -0.0667 -0.1539 0.6463
C9A C -0.2965(17) -0.0920(16) 0.5936(11)
H4A H -0.2981 -0.1259 0.5272
H5A H -0.3633 -0.1504 0.6083
H6A H -0.3167 -0.0186 0.5850
C10A C 0.0272(5) 0.4422(5) 0.7081(4)
C11A C -0.6709(5) 0.4613(5) -0.7321(5)
C13A C 0.0137(6) 0.4713(5) 0.6014(4)
C16A C -0.5815(5) 0.4830(5) -0.6128(5)
C17A C 0.6032(7) 0.9591(6) 0.0146(9)
H10A H 0.6723 0.9293 0.0250
C18A C 0.0708(6) 0.4253(5) 0.5450(5)
H11A H 0.1195 0.3754 0.5750
C19A C -0.5886(6) 0.5610(6) -0.5378(5)
H12A H -0.6488 0.6023 -0.5628
C20A C -0.0552(6) 0.5464(6) 0.5564(5)
H13A H -0.0923 0.5791 0.5944
C21A C 0.6146(5) 1.0725(5) -0.0088(5)
C22A C -0.4923(6) 0.4219(6) -0.5730(5)
H14A H -0.4870 0.3683 -0.6223
C23A C 0.5129(7) 1.1125(6) -0.0229(9)
H15A H 0.5198 1.1898 -0.0386
C24A C -0.0956(12) 0.0460(8) 0.7603(8)
H16A H -0.1435 0.0984 0.7521
N2A N 0.5214(19) 0.3868(17) 1.0226(15)
N3A N -0.6984(4) 0.3637(4) -0.8045(4)
N4A N 0.8297(4) 1.1127(3) -0.0278(4)
N5A N 0.0558(4) 0.3532(4) 0.8424(4)
N6A N 0.0141(4) 0.5105(4) 0.7810(3)
N7A N -0.7900(4) 0.3742(4) -0.9002(4)
N7A_2 N 0.2100(4) 0.3742(4) 1.0998(4)
N8A N 0.0326(4) 0.4527(3) 0.8645(3)
N8A_2 N 0.0326(4) 0.4527(3) -0.1355(3)
N9A N 0.9205(4) 1.2129(3) -0.0295(3)
N9A_2 N -0.0795(4) 0.2129(3) 0.9705(3)
N10A N 0.8847(4) 1.3073(3) -0.0193(3)
N10A_2 N -0.1153(4) 0.3073(3) -0.0193(3)
N11A N -0.8149(4) 0.4748(3) -0.8858(3)
N11A_2 N 0.1851(4) 0.4748(3) 0.1142(3)
N12A N 0.7691(4) 1.2718(3) -0.0107(4)
N13A N 0.0534(5) 0.3440(4) 0.7433(4)
N15A N -0.1619(11) -0.0633(7) 0.6852(8)
N16A N -0.7399(4) 0.5323(4) -0.7798(4)
O5 O -0.3043(11) 0.2116(9) -0.3078(8)
C14 C -0.402(2) 0.1739(17) -0.3136(16)
H7 H -0.4260 0.2376 -0.2895
H8 H -0.4036 0.1143 -0.2680
H9 H -0.4664 0.1352 -0.3888
O6 O -0.056(2) 1.040(2) 0.4702(19)
C26 C -0.072(3) 1.124(3) 0.545(2)
loop_
_geom_bond_atom_site_label_1
_geom_bond_atom_site_label_2
_geom_bond_site_symmetry_1
_geom_bond_site_symmetry_2
Zn1 N8 1_555 1_555
Zn2 O1 1_555 1_555
O1 C6 1_555 1_555
O2 Zn2 1_555 1_555
O3 Zn2 1_555 1_555
O5 C14 1_555 1_555
C2 N2 1_555 1_555
C4 N2 1_555 1_555
C6 N2 1_555 1_555
C7 C21 1_555 1_555
C8 H1 1_555 1_555
H2 C8 1_555 1_555
H3 C8 1_555 1_555
C9 H4 1_555 1_555
H5 C9 1_555 1_555
H6 C9 1_555 1_555
C10 C13 1_555 1_555
C11 C16 1_555 1_555
C13 C18 1_555 1_555
C14 H7 1_555 1_555
H8 C14 1_555 1_555
H9 C14 1_555 1_555
C16 C19 1_555 1_555
C17 H10 1_555 1_555
C18 H11 1_555 1_555
C19 H12 1_555 1_555
C20 C13 1_555 1_555
H13 C20 1_555 1_555
C21 C17 1_555 1_555
C22 C16 1_555 1_555
H14 C22 1_555 1_555
C23 C21 1_555 1_555
H15 C23 1_555 1_555
C24 O3 1_555 1_555
H16 C24 1_555 1_555
N3 C11 1_555 1_555
N4 C7 1_555 1_555
N5 Zn2 1_555 1_555
N6 C10 1_555 1_555
N7 Zn2 1_555 1_555
N8 N5 1_555 1_555
N9 Zn2 1_555 1_555
N10 Zn1 1_555 1_555
N11 Zn1 1_555 1_555
N12 C7 1_555 1_555
N13 C10 1_555 1_555
N15 C8 1_555 1_555
N16 C11 1_555 1_555
O6 C26 1_555 1_555
Zn1_2 N10A 1_555 1_555
Zn1_3 N8A 1_555 1_555
Zn1_4 N11A 1_555 1_555
Zn2A O1A 1_555 1_555
Zn2A_2 N9A 1_555 1_555
Zn2A_3 N7A 1_555 1_555
O1A C6A 1_555 1_555
O2A Zn2A 1_555 1_555
O3A Zn2A 1_555 1_555
C2A N2A 1_555 1_555
C4A N2A 1_555 1_555
C6A N2A 1_555 1_555
C7A C21A 1_555 1_555
C8A H1A 1_555 1_555
H2A C8A 1_555 1_555
H3A C8A 1_555 1_555
C9A H4A 1_555 1_555
H5A C9A 1_555 1_555
H6A C9A 1_555 1_555
C10A C13A 1_555 1_555
C11A C16A 1_555 1_555
C13A C18A 1_555 1_555
C16A C19A 1_555 1_555
C17A C23 1_555 1_555
H10A C17A 1_555 1_555
C18A C20 1_555 1_555
H11A C18A 1_555 1_555
C19A C22 1_555 1_555
H12A C19A 1_555 1_555
C20A C18 1_555 1_555
H13A C20A 1_555 1_555
C21A C17A 1_555 1_555
C22A C19 1_555 1_555
H14A C22A 1_555 1_555
C23A C17 1_555 1_555
H15A C23A 1_555 1_555
C24A O3A 1_555 1_555
H16A C24A 1_555 1_555
N3A C11A 1_555 1_555
N4A C7A 1_555 1_555
N5A Zn2A 1_555 1_555
N6A C10A 1_555 1_555
N7A N3A 1_555 1_555
N7A_2 Zn2A 1_555 1_555
N8A N5A 1_555 1_555
N8A_2 Zn1 1_555 1_555
N9A N4A 1_555 1_555
N9A_2 Zn2A 1_555 1_555
N10A N9A 1_555 1_555
N10A_2 Zn1 1_555 1_555
N11A N7A 1_555 1_555
N11A_2 Zn1 1_555 1_555
N12A C7A 1_555 1_555
N13A C10A 1_555 1_555
N15A C8A 1_555 1_555
N16A C11A 1_555 1_555
C9 N15 1_555 1_555
C24 N15 1_555 1_555
N3 N7 1_555 1_555
N4 N9 1_555 1_555
N5 N13 1_555 1_555
N6 N8 1_555 1_555
N7 N11 1_555 1_555
N9 N10 1_555 1_555
N10 N12 1_555 1_555
N11 N16 1_555 1_555
C9A N15A 1_555 1_555
C13A C20A 1_555 1_555
C16A C22A 1_555 1_555
C21A C23A 1_555 1_555
C24A N15A 1_555 1_555
N5A N13A 1_555 1_555
N6A N8A 1_555 1_555
N10A N12A 1_555 1_555
N11A N16A 1_555 1_555

#END
