
#######################################################################
#
#                 Cambridge Crystallographic Data Centre
#                                CCDC 
#
#######################################################################
#
# If this CIF has been generated from an entry in the Cambridge 
# Structural Database, then it will include bibliographic, chemical, 
# crystal, experimental, refinement or atomic coordinate data resulting 
# from the CCDC's data processing and validation procedures.
#
#######################################################################

data_JUQTUM
_chemical_formula_moiety         '(C24 H15 Co6 N13 O12)n'
_symmetry_cell_setting           cubic
_symmetry_space_group_name_H-M   'P 21 3'
_symmetry_Int_Tables_number      198
_space_group_name_Hall           'P 2ac 2ab 3'
loop_
_symmetry_equiv_pos_site_id
_symmetry_equiv_pos_as_xyz
1 x,y,z
2 1/2-x,-y,1/2+z
3 -x,1/2+y,1/2-z
4 1/2+x,1/2-y,-z
5 z,x,y
6 1/2+z,1/2-x,-y
7 1/2-z,-x,1/2+y
8 -z,1/2+x,1/2-y
9 y,z,x
10 -y,1/2+z,1/2-x
11 1/2+y,1/2-z,-x
12 1/2-y,-z,1/2+x
_cell_length_a                   17.4882(2)
_cell_length_b                   17.4882(2)
_cell_length_c                   17.4882(2)
_cell_angle_alpha                90
_cell_angle_beta                 90
_cell_angle_gamma                90
_cell_volume                     5348.54
loop_
_atom_site_label
_atom_site_type_symbol
_atom_site_fract_x
_atom_site_fract_y
_atom_site_fract_z
Co1 Co -0.35544(3) 0.37906(3) 0.48861(3)
O1 O -0.4006(2) 0.3969(2) 0.59136(19)
O2 O -0.42273(17) 0.48116(19) 0.44462(19)
C1 C -0.4617(3) 0.4243(3) 0.6168(3)
Co2 Co -0.53653(3) 0.46347(3) 0.46347(3)
C2 C -0.4730(3) 0.4322(3) 0.6986(3)
O3 O -0.65110(19) 0.42864(19) 0.4716(2)
C3 C -0.4280(3) 0.4196(3) 0.7626(3)
N1 N -0.5429(2) 0.4608(2) 0.7247(2)
Co3 Co -0.63885(4) 0.36115(4) 0.36115(4)
C4 C -0.6811(3) 0.3869(3) 0.5250(3)
N2 N -0.5748(2) 0.2892(2) 0.2930(2)
O4 O -0.6792(2) 0.4033(2) 0.5939(2)
N3 N -0.7125(2) 0.5154(2) 0.7114(2)
H1 H -0.3770 0.3992 0.7627
N4 N -0.4689(2) 0.4411(3) 0.8253(2)
C5 C -0.5356(3) 0.4638(3) 0.7993(3)
C6 C -0.7203(3) 0.3178(3) 0.4999(3)
C7 C -0.7310(3) 0.5797(3) 0.7482(3)
C8 C -0.7679(3) 0.4654(3) 0.7322(3)
Co4 Co -0.43568(4) 0.43568(4) 0.93568(4)
H2 H -0.5759 0.4811 0.8324
H3 H -0.7011 0.6256 0.7448
H4 H -0.7711 0.4132 0.7156
N5 N -0.5000(5) 0.5000(5) 1.0000(5)
H5 H -0.4841 0.4968 1.0490
O2H O -0.51884(19) 0.44462(19) 0.57727(17)
O3D O -0.5284(2) 0.34890(19) 0.42864(19)
O2D O -0.55538(19) 0.57727(17) 0.48116(19)
O3H O -0.57136(19) 0.4716(2) 0.34890(19)
Co1H Co -0.62094(3) 0.48861(3) 0.64456(3)
Co1D Co -0.51139(3) 0.64456(3) 0.37906(3)
C4H C -0.6131(3) 0.5250(3) 0.3189(3)
O1H O -0.6031(2) 0.59136(19) 0.5994(2)
N2H N -0.7108(2) 0.2930(2) 0.4252(2)
N2D N -0.7070(2) 0.4252(2) 0.2892(2)
O4H O -0.5967(2) 0.5939(2) 0.3208(2)
C6H C -0.6822(3) 0.4999(3) 0.2797(3)
C7E C -0.7518(3) 0.2310(3) 0.4203(3)
C7A C -0.7690(3) 0.4203(3) 0.2482(3)
C8E C -0.7678(3) 0.2679(3) 0.5346(3)
C8A C -0.7321(3) 0.5346(3) 0.2322(3)
N2F N -0.7930(2) 0.5748(2) 0.7892(2)
C6K C -0.8178(3) 0.5001(3) 0.7797(3)
N4F N -0.3253(2) 0.4689(2) 0.9411(3)
N4I N -0.4411(3) 0.3253(2) 0.9689(2)
N3E N -0.7886(2) 0.2125(2) 0.4846(2)
H3E H -0.7552 0.2011 0.3744
N3A N -0.7875(2) 0.4846(2) 0.2114(2)
H3A H -0.7989 0.3744 0.2448
H4E H -0.7844 0.2711 0.5868
H4A H -0.7289 0.5868 0.2156
Co3A Co -0.86115(4) 0.63885(4) 0.86115(4)
C4K C -0.8869(3) 0.4750(3) 0.8189(3)
H5F H -0.5490 0.4841 0.9968
H5I H -0.4968 0.5490 0.9841
C5F C -0.2993(3) 0.5356(3) 0.9638(3)
C3F C -0.2626(3) 0.4280(3) 0.9196(3)
C5I C -0.4638(3) 0.2993(3) 1.0356(3)
C3I C -0.4196(3) 0.2626(3) 0.9280(3)
Co1C Co -0.85544(3) 0.12094(3) 0.51139(3)
Co1K Co -0.87906(3) 0.51139(3) 0.14456(3)
Co1F Co 0.01139(3) 0.35544(3) 0.87906(3)
Co1I Co -0.37906(3) -0.01139(3) 0.85544(3)
O3K O -0.92864(19) 0.5284(2) 0.84890(19)
O4K O -0.9033(2) 0.4061(2) 0.8208(2)
N1F N -0.2247(2) 0.5429(2) 0.9608(2)
H2F H -0.3324 0.5759 0.9811
H1F H -0.2627 0.3770 0.8992
C2F C -0.1986(3) 0.4730(3) 0.9322(3)
N1I N -0.4608(2) 0.2247(2) 1.0429(2)
H2I H -0.4811 0.3324 1.0759
H1I H -0.3992 0.2627 0.8770
C2I C -0.4322(3) 0.1986(3) 0.9730(3)
O1F O -0.09136(19) 0.4006(2) 0.8969(2)
O1I O -0.3969(2) 0.09136(19) 0.9006(2)
Co2A Co -0.96347(3) 0.53653(3) 0.96347(3)
Co1F_2 Co -0.98861(3) 0.35544(3) 0.87906(3)
Co1A Co -0.14456(3) 0.62094(3) 0.98861(3)
C1F C -0.1168(3) 0.4617(3) 0.9243(3)
Co1G Co -0.48861(3) 0.14456(3) 1.12094(3)
C1I C -0.4243(3) 0.1168(3) 0.9617(3)
Co2A_2 Co 0.03653(3) 0.53653(3) 0.96347(3)
Co2B Co -0.46347(3) -0.03653(3) 1.03653(3)
N3F N -0.2114(2) 0.7125(2) 1.0154(2)
O1A O -0.0994(2) 0.6031(2) 1.09136(19)
O4F O -0.0939(2) 0.6792(2) 0.9033(2)
O2A O -0.07727(17) 0.51884(19) 0.94462(19)
N3I N -0.5154(2) 0.2114(2) 1.2125(2)
O1G O -0.59136(19) 0.0994(2) 1.1031(2)
O4I O -0.4033(2) 0.0939(2) 1.1792(2)
O2G O -0.44462(19) 0.07727(17) 1.01884(19)
loop_
_geom_bond_atom_site_label_1
_geom_bond_atom_site_label_2
_geom_bond_site_symmetry_1
_geom_bond_site_symmetry_2
Co1 O1 1_555 1_555
O1 C1 1_555 1_555
O2 Co1 1_555 1_555
C1 C2 1_555 1_555
Co2 O2 1_555 1_555
C2 C3 1_555 1_555
O3 Co2 1_555 1_555
C3 H1 1_555 1_555
N1 C2 1_555 1_555
Co3 O3 1_555 1_555
C4 O3 1_555 1_555
N2 Co3 1_555 1_555
O4 C4 1_555 1_555
N3 C7 1_555 1_555
N4 C3 1_555 1_555
C5 N1 1_555 1_555
C6 C4 1_555 1_555
C7 H3 1_555 1_555
C8 N3 1_555 1_555
Co4 N4 1_555 1_555
H2 C5 1_555 1_555
H4 C8 1_555 1_555
N5 Co4 1_555 1_555
H5 N5 1_555 1_555
O2H C1 1_555 1_555
O3D Co2 1_555 1_555
O2D Co2 1_555 1_555
O3H Co2 1_555 1_555
Co1H N1 1_555 1_555
Co1D O2D 1_555 1_555
C4H O3H 1_555 1_555
O1H Co1H 1_555 1_555
N2H Co3 1_555 1_555
N2D Co3 1_555 1_555
O4H Co1D 1_555 1_555
C6H C4H 1_555 1_555
C7E N2H 1_555 1_555
C7A N2D 1_555 1_555
C8E C6 1_555 1_555
C8A C6H 1_555 1_555
N2F C7 1_555 1_555
C6K C8 1_555 1_555
N4F Co4 1_555 1_555
N4I Co4 1_555 1_555
N3E C7E 1_555 1_555
H3E C7E 1_555 1_555
N3A C7A 1_555 1_555
H3A C7A 1_555 1_555
H4E C8E 1_555 1_555
H4A C8A 1_555 1_555
Co3A N2F 1_555 1_555
C4K C6K 1_555 1_555
H5F N5 1_555 1_555
H5I N5 1_555 1_555
C5F N4F 1_555 1_555
C3F N4F 1_555 1_555
C5I N4I 1_555 1_555
C3I N4I 1_555 1_555
Co1C N3E 1_555 1_555
Co1K N3A 1_555 1_555
Co1F O1F 1_555 1_555
Co1I O1I 1_555 1_555
O3K Co3A 1_555 1_555
O4K C4K 1_555 1_555
N1F C5F 1_555 1_555
H2F C5F 1_555 1_555
H1F C3F 1_555 1_555
C2F C3F 1_555 1_555
N1I C5I 1_555 1_555
H2I C5I 1_555 1_555
H1I C3I 1_555 1_555
C2I C3I 1_555 1_555
O1F C1F 1_555 1_555
O1I C1I 1_555 1_555
Co2A O3K 1_555 1_555
Co1F_2 O4K 1_555 1_555
Co1A N1F 1_555 1_555
C1F C2F 1_555 1_555
Co1G N1I 1_555 1_555
C1I C2I 1_555 1_555
Co2A_2 O2A 1_555 1_555
Co2B O2G 1_555 1_555
N3F Co1A 1_555 1_555
O1A Co1A 1_555 1_555
O4F Co1A 1_555 1_555
O2A Co1A 1_555 1_555
N3I Co1G 1_555 1_555
O1G Co1G 1_555 1_555
O4I Co1G 1_555 1_555
O2G Co1G 1_555 1_555
Co2 O2H 1_555 1_555
Co3 O3D 1_555 1_555
Co3 O3H 1_555 1_555
O4 Co1H 1_555 1_555
N3 Co1H 1_555 1_555
N4 C5 1_555 1_555
C6 N2H 1_555 1_555
O2H Co1H 1_555 1_555
C4H O4H 1_555 1_555
N2D C6H 1_555 1_555
C8E N3E 1_555 1_555
C8A N3A 1_555 1_555
N2F C6K 1_555 1_555
C4K O3K 1_555 1_555
N1F C2F 1_555 1_555
N1I C2I 1_555 1_555
C1F O2A 1_555 1_555
C1I O2G 1_555 1_555

#END
