
#######################################################################
#
#                 Cambridge Crystallographic Data Centre
#                                CCDC 
#
#######################################################################
#
# If this CIF has been generated from an entry in the Cambridge 
# Structural Database, then it will include bibliographic, chemical, 
# crystal, experimental, refinement or atomic coordinate data resulting 
# from the CCDC's data processing and validation procedures.
#
#######################################################################

data_JUQTOG
_chemical_formula_moiety         '(C24 H15 Co6 N13 O12)n'
_symmetry_cell_setting           cubic
_symmetry_space_group_name_H-M   'P 21 3'
_symmetry_Int_Tables_number      198
_space_group_name_Hall           'P 2ac 2ab 3'
loop_
_symmetry_equiv_pos_site_id
_symmetry_equiv_pos_as_xyz
1 x,y,z
2 1/2-x,-y,1/2+z
3 -x,1/2+y,1/2-z
4 1/2+x,1/2-y,-z
5 z,x,y
6 1/2+z,1/2-x,-y
7 1/2-z,-x,1/2+y
8 -z,1/2+x,1/2-y
9 y,z,x
10 -y,1/2+z,1/2-x
11 1/2+y,1/2-z,-x
12 1/2-y,-z,1/2+x
_cell_length_a                   17.4611(2)
_cell_length_b                   17.4611(2)
_cell_length_c                   17.4611(2)
_cell_angle_alpha                90
_cell_angle_beta                 90
_cell_angle_gamma                90
_cell_volume                     5323.72
loop_
_atom_site_label
_atom_site_type_symbol
_atom_site_fract_x
_atom_site_fract_y
_atom_site_fract_z
Co1 Co 0.14404(6) -0.62097(6) -0.98820(6)
Co2 Co 0.43604(7) -0.43604(7) -0.93604(7)
Co3 Co -0.03675(6) -0.53675(6) -0.96325(6)
Co4 Co -0.13910(7) -0.63910(7) -0.86090(7)
C1 C -0.2689(6) -0.7323(6) -1.0341(5)
H1 H -0.2849 -0.7293 -1.0848
C2 C -0.2531(6) -0.7682(5) -0.9185(5)
H2 H -0.2569 -0.7968 -0.8737
C3 C -0.2209(5) -0.6821(5) -0.9988(5)
C4 C -0.1822(5) -0.6132(5) -1.0249(6)
C5 C 0.2631(5) -0.4278(5) -0.9229(6)
H3 H 0.2630 -0.3772 -0.9063
C6 C 0.2999(5) -0.5377(5) -0.9624(6)
H4 H 0.3317 -0.5778 -0.9773
C7 C 0.1989(5) -0.4723(5) -0.9329(5)
C8 C 0.1184(5) -0.4609(5) -0.9248(5)
N1 N -0.2122(4) -0.7068(4) -0.9245(4)
N2 N -0.2896(4) -0.7867(4) -0.9844(5)
N3 N 0.3262(4) -0.4686(5) -0.9408(5)
N4 N 0.2246(4) -0.5429(4) -0.9602(4)
N5 N 0.5011(9) -0.5011(9) -1.0011(9)
H5 H 0.5495 -0.4852 -0.9976
O1 O -0.1794(4) -0.5964(4) -1.0939(4)
O2 O -0.1509(3) -0.5717(3) -0.9709(4)
O3 O 0.0919(4) -0.4003(3) -0.8982(4)
O4 O 0.0770(3) -0.5187(3) -0.9452(3)
H5F H 0.4976 -0.5495 -0.9852
H5I H 0.4852 -0.4976 -1.0495
Co1F Co 0.48820(6) -0.14404(6) -1.12097(6)
C5F C 0.4229(6) -0.2631(5) -0.9278(5)
H3F H 0.4063 -0.2630 -0.8772
C6F C 0.4624(6) -0.2999(5) -1.0377(5)
H4F H 0.4773 -0.3317 -1.0778
C7F C 0.4329(5) -0.1989(5) -0.9723(5)
C8F C 0.4248(5) -0.1184(5) -0.9609(5)
N3F N 0.4408(5) -0.3262(4) -0.9686(5)
N4F N 0.4602(4) -0.2246(4) -1.0429(4)
O3F O 0.3982(4) -0.0919(4) -0.9003(3)
O4F O 0.4452(3) -0.0770(3) -1.0187(3)
Co1I Co 0.62097(6) -0.48820(6) -0.64404(6)
C5I C 0.4278(5) -0.4229(6) -0.7631(5)
H3I H 0.3772 -0.4063 -0.7630
C6I C 0.5377(5) -0.4624(6) -0.7999(5)
H4I H 0.5778 -0.4773 -0.8317
C7I C 0.4723(5) -0.4329(5) -0.6989(5)
C8I C 0.4609(5) -0.4248(5) -0.6184(5)
N3I N 0.4686(5) -0.4408(5) -0.8262(4)
N4I N 0.5429(4) -0.4602(4) -0.7246(4)
O3I O 0.4003(3) -0.3982(4) -0.5919(4)
O4I O 0.5187(3) -0.4452(3) -0.5770(3)
C1C C 0.2311(6) -0.7677(6) -0.9659(5)
H1C H 0.2151 -0.7707 -0.9152
C2C C 0.2469(6) -0.7318(5) -1.0815(5)
H2C H 0.2431 -0.7032 -1.1263
C3C C 0.2791(5) -0.8179(5) -1.0012(5)
C4C C 0.3178(5) -0.8868(5) -0.9751(6)
N1C N 0.2878(4) -0.7932(4) -1.0755(4)
N2C N 0.2104(4) -0.7133(4) -1.0156(5)
O1C O 0.3206(4) -0.9036(4) -0.9061(4)
O2C O 0.3491(3) -0.9283(3) -1.0291(4)
C1G C 0.0341(5) -0.7689(6) -0.7677(6)
H1G H 0.0848 -0.7849 -0.7707
C2G C -0.0815(5) -0.7531(6) -0.7318(5)
H2G H -0.1263 -0.7569 -0.7032
C3G C -0.0012(5) -0.7209(5) -0.8179(5)
C4G C 0.0249(6) -0.6822(5) -0.8868(5)
N1G N -0.0755(4) -0.7122(4) -0.7932(4)
N2G N -0.0156(5) -0.7896(4) -0.7133(4)
O1G O 0.0939(4) -0.6794(4) -0.9036(4)
O2G O -0.0291(4) -0.6509(3) -0.9283(3)
Co1A Co 0.35596(6) -0.37903(6) -0.48820(6)
Co1C Co -0.35596(6) -0.87903(6) -1.01180(6)
Co1D Co 0.01180(6) -0.85596(6) -0.62097(6)
Co1G Co -0.01180(6) -0.35596(6) -0.87903(6)
Co1H Co 0.37903(6) -0.98820(6) -0.85596(6)
Co1H_2 Co 0.37903(6) 0.01180(6) -0.85596(6)
Co1J Co -0.12097(6) -0.51180(6) -1.14404(6)
Co3A Co 0.53675(6) -0.46325(6) -0.46325(6)
Co3C Co 0.46325(6) -0.96325(6) -1.03675(6)
Co3C_2 Co 0.46325(6) 0.03675(6) -1.03675(6)
Co4C Co 0.36090(7) -0.86090(7) -1.13910(7)
N1J N -0.2068(4) -0.5755(4) -0.7878(4)
N2E N 0.5156(5) -0.2104(4) -1.2133(4)
N2J N 0.7133(4) -0.5156(5) -0.7104(4)
O1A O 0.6794(4) -0.4036(4) -0.5939(4)
O1H O 0.4036(4) -0.0939(4) -1.1794(4)
O2J O -0.0717(3) -0.5291(4) -0.8491(3)
O3C O 0.5919(4) -0.0997(3) -1.1018(4)
O3E O 0.6018(4) -0.5919(4) -0.5997(3)
O3J O 0.0997(3) -0.6018(4) -1.0919(4)
O4G O -0.0548(3) -0.4230(3) -0.9813(3)
O4J O -0.0187(3) -0.5548(3) -1.0770(3)
loop_
_geom_bond_atom_site_label_1
_geom_bond_atom_site_label_2
_geom_bond_site_symmetry_1
_geom_bond_site_symmetry_2
Co1 N4 1_555 1_555
Co2 N3 1_555 1_555
Co3 O2 1_555 1_555
Co4 N1 1_555 1_555
C1 H1 1_555 1_555
C2 H2 1_555 1_555
C3 C1 1_555 1_555
C4 C3 1_555 1_555
C5 H3 1_555 1_555
C6 H4 1_555 1_555
C7 C5 1_555 1_555
C8 C7 1_555 1_555
N1 C2 1_555 1_555
N2 C1 1_555 1_555
N3 C5 1_555 1_555
N4 C6 1_555 1_555
N5 Co2 1_555 1_555
H5 N5 1_555 1_555
O1 C4 1_555 1_555
O2 Co4 1_555 1_555
O3 C8 1_555 1_555
O4 Co1 1_555 1_555
H5F N5 1_555 1_555
H5I N5 1_555 1_555
Co1F N4F 1_555 1_555
C5F H3F 1_555 1_555
C6F H4F 1_555 1_555
C7F C5F 1_555 1_555
C8F C7F 1_555 1_555
N3F Co2 1_555 1_555
N4F C6F 1_555 1_555
O3F C8F 1_555 1_555
O4F Co1F 1_555 1_555
Co1I N4I 1_555 1_555
C5I H3I 1_555 1_555
C6I H4I 1_555 1_555
C7I C5I 1_555 1_555
C8I C7I 1_555 1_555
N3I Co2 1_555 1_555
N4I C6I 1_555 1_555
O3I C8I 1_555 1_555
O4I Co1I 1_555 1_555
C1C H1C 1_555 1_555
C2C H2C 1_555 1_555
C3C C1C 1_555 1_555
C4C C3C 1_555 1_555
N1C C2C 1_555 1_555
N2C Co1 1_555 1_555
O1C C4C 1_555 1_555
O2C C4C 1_555 1_555
C1G H1G 1_555 1_555
C2G H2G 1_555 1_555
C3G C1G 1_555 1_555
C4G C3G 1_555 1_555
N1G Co4 1_555 1_555
N2G C1G 1_555 1_555
O1G Co1 1_555 1_555
O2G Co3 1_555 1_555
Co1A O3I 1_555 1_555
Co1C N2 1_555 1_555
Co1D N2G 1_555 1_555
Co1G O3 1_555 1_555
Co1H O1C 1_555 1_555
Co1H_2 O3F 1_555 1_555
Co1J O1 1_555 1_555
Co3A O4I 1_555 1_555
Co3C O2C 1_555 1_555
Co3C_2 O4F 1_555 1_555
Co4C N1C 1_555 1_555
N1J Co4 1_555 1_555
N2E Co1F 1_555 1_555
N2J Co1I 1_555 1_555
O1A Co1I 1_555 1_555
O1H Co1F 1_555 1_555
O2J Co3 1_555 1_555
O3C Co1F 1_555 1_555
O3E Co1I 1_555 1_555
O3J Co1 1_555 1_555
O4G Co3 1_555 1_555
O4J Co3 1_555 1_555
Co3 O4 1_555 1_555
Co4 O2G 1_555 1_555
Co4 O2J 1_555 1_555
C2 N2 1_555 1_555
C3 N1 1_555 1_555
C4 O2 1_555 1_555
C6 N3 1_555 1_555
C7 N4 1_555 1_555
C8 O4 1_555 1_555
C5F N3F 1_555 1_555
C6F N3F 1_555 1_555
C7F N4F 1_555 1_555
C8F O4F 1_555 1_555
C5I N3I 1_555 1_555
C6I N3I 1_555 1_555
C7I N4I 1_555 1_555
C8I O4I 1_555 1_555
C1C N2C 1_555 1_555
C2C N2C 1_555 1_555
C3C N1C 1_555 1_555
O2C Co4C 1_555 1_555
C2G N1G 1_555 1_555
C2G N2G 1_555 1_555
C3G N1G 1_555 1_555
C4G O1G 1_555 1_555
C4G O2G 1_555 1_555
Co1G O4G 1_555 1_555
Co1J O4J 1_555 1_555

#END
