
#######################################################################
#
#                 Cambridge Crystallographic Data Centre
#                                CCDC 
#
#######################################################################
#
# If this CIF has been generated from an entry in the Cambridge 
# Structural Database, then it will include bibliographic, chemical, 
# crystal, experimental, refinement or atomic coordinate data resulting 
# from the CCDC's data processing and validation procedures.
#
#######################################################################

data_JUQVAU
_chemical_formula_moiety         '(C24 H14 Co6 N12 O13)n'
_symmetry_cell_setting           cubic
_symmetry_space_group_name_H-M   'P 21 3'
_symmetry_Int_Tables_number      198
_space_group_name_Hall           'P 2ac 2ab 3'
loop_
_symmetry_equiv_pos_site_id
_symmetry_equiv_pos_as_xyz
1 x,y,z
2 1/2-x,-y,1/2+z
3 -x,1/2+y,1/2-z
4 1/2+x,1/2-y,-z
5 z,x,y
6 1/2+z,1/2-x,-y
7 1/2-z,-x,1/2+y
8 -z,1/2+x,1/2-y
9 y,z,x
10 -y,1/2+z,1/2-x
11 1/2+y,1/2-z,-x
12 1/2-y,-z,1/2+x
_cell_length_a                   17.5279(8)
_cell_length_b                   17.5279(8)
_cell_length_c                   17.5279(8)
_cell_angle_alpha                90
_cell_angle_beta                 90
_cell_angle_gamma                90
_cell_volume                     5385.05
loop_
_atom_site_label
_atom_site_type_symbol
_atom_site_fract_x
_atom_site_fract_y
_atom_site_fract_z
_atom_site_U_iso_or_equiv
_atom_site_thermal_displace_type
Co1 Co -0.12867(3) -0.89447(3) -0.76174(3) 0.0183 Uani
N1 N -0.2076(2) -0.9743(2) -0.7889(2) 0.0253 Uani
O1 O -0.23036(18) -0.82658(16) -0.80573(18) 0.0243 Uani
N2 N -0.0382(2) -0.9627(2) -0.7347(2) 0.0260 Uani
O2 O -0.0692(2) -0.8441(2) -0.8459(2) 0.0347 Uani
O3 O -0.1454(2) -0.8478(2) -0.65965(19) 0.0341 Uani
C1 C -0.2148(3) -1.0481(3) -0.7854(3) 0.0280 Uani
C2 C -0.2769(3) -0.9480(3) -0.8188(3) 0.0277 Uani
Co2 Co -0.21296(3) -0.71296(3) -0.78704(3) 0.0171 Uani
C3 C -0.2872(3) -0.8657(3) -0.8268(2) 0.0193 Uani
C4 C 0.0180(3) -0.9819(3) -0.7844(3) 0.0293 Uani
C5 C -0.0202(3) -0.9995(3) -0.6709(3) 0.0280 Uani
C6 C -0.0686(3) -0.7746(3) -0.8619(3) 0.0247 Uani
N3 N -0.2819(2) -1.0745(2) -0.8096(2) 0.0277 Uani
H1 H -0.1746 -1.0805 -0.7662 0.0290 Uiso
C7 C -0.3216(3) -1.0109(3) -0.8314(3) 0.0293 Uani
O4 O -0.09876(18) -0.72096(18) -0.82184(17) 0.0257 Uani
C8 C 0.0675(3) -1.0298(3) -0.7489(3) 0.0223 Uani
H2 H 0.0222 -0.9668 -0.8337 0.0290 Uiso
N4 N 0.0429(2) -1.0403(2) -0.6753(2) 0.0247 Uani
H3 H -0.0485 -0.9983 -0.6257 0.0290 Uiso
Co3 Co -0.31591(3) -1.18409(3) -0.81591(3) 0.0197 Uani
H4 H -0.3698 -1.0098 -0.8489 0.0290 Uiso
Co4 Co -0.11105(3) -0.61105(3) -0.88895(3) 0.0210 Uani
O5 O -0.2506(5) -1.2494(5) -0.7506(5) 0.1020 Uani
O1G O -0.19427(18) -0.73036(18) -0.67342(16) 0.0243 Uani
O1J O -0.32658(16) -0.69427(18) -0.76964(18) 0.0243 Uani
O4G O -0.17816(17) -0.59876(18) -0.77904(18) 0.0257 Uani
O4J O -0.22096(18) -0.67816(17) -0.90124(18) 0.0257 Uani
O3J O -0.3478(2) -0.84035(19) -0.8546(2) 0.0341 Uani
C8H C -0.0298(3) -0.7489(3) -0.9325(3) 0.0223 Uani
Co1J Co -0.39447(3) -0.73826(3) -0.87133(3) 0.0183 Uani
C6D C 0.1381(3) -1.0686(3) -0.7746(3) 0.0247 Uani
Co4B Co 0.11105(3) -1.11105(3) -0.61105(3) 0.0210 Uani
C4H C 0.0181(3) -0.7844(3) -0.9820(3) 0.0293 Uani
N4H N -0.0403(2) -0.6753(2) -0.9571(2) 0.0247 Uani
N3E N -0.3096(2) -1.2181(2) -0.9255(2) 0.0277 Uani
N3K N -0.4255(2) -1.1904(2) -0.7819(2) 0.0277 Uani
O2D O 0.1541(2) -1.0692(2) -0.8441(2) 0.0347 Uani
O4D O 0.17816(17) -1.09876(18) -0.72096(18) 0.0257 Uani
O4K O 0.22096(18) -1.17816(17) -0.59876(18) 0.0257 Uani
O4B O 0.09876(18) -1.22096(18) -0.67816(17) 0.0257 Uani
N4F N 0.1753(2) -1.0429(2) -0.5403(2) 0.0247 Uani
N4I N 0.0403(2) -1.1753(2) -0.5429(2) 0.0247 Uani
N2H N 0.0373(2) -0.7347(2) -1.0382(2) 0.0260 Uani
H2H H 0.0332 -0.8337 -0.9778 0.0290 Uiso
C5H C 0.0005(3) -0.6709(3) -1.0202(3) 0.0280 Uani
Co1D Co 0.23826(3) -1.12867(3) -0.89447(3) 0.0183 Uani
Co2B Co 0.21296(3) -1.21296(3) -0.71296(3) 0.0171 Uani
Co1H Co 0.10553(3) -0.76174(3) -1.12867(3) 0.0183 Uani
H3H H 0.0017 -0.6257 -1.0485 0.0290 Uiso
N1D N 0.2111(2) -1.2076(2) -0.9743(2) 0.0253 Uani
O1D O 0.19427(18) -1.23036(18) -0.82658(16) 0.0243 Uani
N2D N 0.2653(2) -1.0382(2) -0.9627(2) 0.0260 Uani
O3D O 0.34035(19) -1.1454(2) -0.8478(2) 0.0341 Uani
O2H O 0.1559(2) -0.8459(2) -1.0692(2) 0.0347 Uani
N1H N 0.0257(2) -0.7889(2) -1.2076(2) 0.0253 Uani
O1H O 0.17342(16) -0.80573(18) -1.23036(18) 0.0243 Uani
O3H O 0.1522(2) -0.65965(19) -1.1454(2) 0.0341 Uani
C1D C 0.2146(3) -1.2148(3) -1.0481(3) 0.0280 Uani
C2D C 0.1812(3) -1.2769(3) -0.9480(3) 0.0277 Uani
C3D C 0.1732(2) -1.2872(3) -0.8657(3) 0.0193 Uani
C4D C 0.2156(3) -0.9820(3) -0.9819(3) 0.0293 Uani
C5D C 0.3291(3) -1.0202(3) -0.9995(3) 0.0280 Uani
Co1B Co 0.12867(3) -1.39447(3) -0.73826(3) 0.0183 Uani
C6H C 0.2254(3) -0.8619(3) -1.0686(3) 0.0247 Uani
C1H C -0.0481(3) -0.7854(3) -1.2148(3) 0.0280 Uani
C2H C 0.0520(3) -0.8188(3) -1.2769(3) 0.0277 Uani
C3H C 0.1343(3) -0.8268(2) -1.2872(3) 0.0193 Uani
Co2C Co 0.28704(3) -0.78704(3) -1.21296(3) 0.0171 Uani
N3D N 0.1904(2) -1.2819(2) -1.0745(2) 0.0277 Uani
H1D H 0.2338 -1.1746 -1.0805 0.0290 Uiso
C7D C 0.1686(3) -1.3216(3) -1.0109(3) 0.0293 Uani
O3B O 0.1454(2) -1.3478(2) -0.84035(19) 0.0341 Uani
C8D C 0.2511(3) -0.9325(3) -1.0298(3) 0.0223 Uani
H2D H 0.1663 -0.9778 -0.9668 0.0290 Uiso
N4D N 0.3247(2) -0.9571(2) -1.0403(2) 0.0247 Uani
H3D H 0.3743 -1.0485 -0.9983 0.0290 Uiso
O4H O 0.27904(18) -0.82184(17) -1.09876(18) 0.0257 Uani
N3H N -0.0745(2) -0.8096(2) -1.2819(2) 0.0277 Uani
H1H H -0.0805 -0.7662 -1.1746 0.0290 Uiso
C7H C -0.0109(3) -0.8314(3) -1.3216(3) 0.0293 Uani
O3F O 0.15965(19) -0.8546(2) -1.3478(2) 0.0341 Uani
Co3C Co 0.18409(3) -1.31591(3) -1.18409(3) 0.0197 Uani
H4D H 0.1511 -1.3698 -1.0098 0.0290 Uiso
Co4C Co 0.38895(3) -0.88895(3) -1.11105(3) 0.0210 Uani
Co3A Co -0.18409(3) -0.81591(3) -1.31591(3) 0.0197 Uani
H4H H -0.0098 -0.8489 -1.3698 0.0290 Uiso
Co1F Co 0.26174(3) -0.87133(3) -1.39447(3) 0.0183 Uani
loop_
_atom_site_aniso_label
_atom_site_aniso_U_11
_atom_site_aniso_U_22
_atom_site_aniso_U_33
_atom_site_aniso_U_23
_atom_site_aniso_U_13
_atom_site_aniso_U_12
Co1 0.0168(3) 0.0172(3) 0.0209(3) -0.0002(2) 0.0010(2) 0.0016(2)
N1 0.022(2) 0.022(2) 0.032(2) 0.0001(17) -0.0054(18) 0.0003(16)
O1 0.0267(17) 0.0173(16) 0.0289(18) 0.0029(13) -0.0018(14) -0.0036(13)
N2 0.022 0.028 0.028 0.0021 -0.0024 0.0096
O2 0.037 0.031 0.036 0.0131 0.0207 0.0099
O3 0.051 0.032 0.0192 -0.0007 -0.0021 0.0209
C1 0.022(2) 0.015(2) 0.047(3) -0.002(2) -0.003(2) 0.0059(19)
C2 0.027(3) 0.025(3) 0.031(3) -0.005(2) -0.006(2) 0.003(2)
Co2 0.0171(2) 0.0171(2) 0.0171(2) 0.0008(2) 0.0008(2) -0.0008(2)
C3 0.024(2) 0.021(2) 0.013(2) 0.0013(18) -0.0023(18) 0.0004(19)
C4 0.027 0.036 0.025 0.006 0 0.001
C5 0.027 0.04 0.017 0.002 0.004 0.005
C6 0.021 0.023 0.03 0.001 -0.002 0.007
N3 0.025(2) 0.0162(19) 0.042(2) -0.0050(17) -0.0023(19) -0.0019(16)
C7 0.020(2) 0.027(3) 0.041(3) -0.006(2) -0.011(2) 0.002(2)
O4 0.0227 0.0317 0.0228 -0.0032 0.0074 0.0025
C8 0.017 0.03 0.02 0.0053 0.0028 0.0034
N4 0.024 0.028 0.022 0 0.0023 0.0033
Co3 0.0197(2) 0.0197(2) 0.0197(2) -0.0014(2) 0.0014(2) -0.0014(2)
Co4 0.021 0.021 0.021 -0.0017 -0.0017 0.0017
O5 0.102(5) 0.102(5) 0.102(5) 0.030(4) -0.030(4) 0.030(4)
O1G 0.0289 0.0267 0.0173 0.0036 0.0029 0.0018
O1J 0.0173 0.0289 0.0267 -0.0018 0.0036 -0.0029
O4G 0.0228 0.0227 0.0317 -0.0025 -0.0032 -0.0074
O4J 0.0317 0.0228 0.0227 0.0074 -0.0025 0.0032
O3J 0.032 0.0192 0.051 -0.0021 -0.0209 0.0007
C8H 0.03 0.02 0.017 0.0028 0.0034 0.0053
Co1J 0.0172 0.0209 0.0168 0.001 -0.0016 0.0002
C6D 0.03 0.021 0.023 0.007 0.001 -0.002
Co4B 0.021 0.021 0.021 0.0017 -0.0017 -0.0017
C4H 0.036 0.025 0.027 0 0.001 0.006
N4H 0.028 0.022 0.024 0.0023 0.0033 0
N3E 0.042 0.025 0.0162 -0.0019 0.005 0.0023
N3K 0.0162 0.042 0.025 0.0023 0.0019 -0.005
O2D 0.036 0.037 0.031 0.0099 0.0131 0.0207
O4D 0.0228 0.0227 0.0317 0.0025 -0.0032 0.0074
O4K 0.0317 0.0228 0.0227 -0.0074 -0.0025 -0.0032
O4B 0.0227 0.0317 0.0228 0.0032 0.0074 -0.0025
N4F 0.022 0.024 0.028 -0.0033 0 0.0023
N4I 0.028 0.022 0.024 -0.0023 0.0033 0
N2H 0.028 0.028 0.022 -0.0024 0.0096 0.0021
C5H 0.04 0.017 0.027 0.004 0.005 0.002
Co1D 0.0209 0.0168 0.0172 0.0016 -0.0002 0.001
Co2B 0.0171 0.0171 0.0171 -0.0008 0.0008 0.0008
Co1H 0.0172 0.0209 0.0168 0.001 0.0016 -0.0002
N1D 0.032 0.022 0.022 0.0003 0.0001 -0.0054
O1D 0.0289 0.0267 0.0173 -0.0036 0.0029 -0.0018
N2D 0.028 0.022 0.028 0.0096 0.0021 -0.0024
O3D 0.0192 0.051 0.032 0.0209 -0.0007 -0.0021
O2H 0.031 0.036 0.037 0.0207 0.0099 0.0131
N1H 0.022 0.032 0.022 -0.0054 0.0003 0.0001
O1H 0.0173 0.0289 0.0267 -0.0018 -0.0036 0.0029
O3H 0.032 0.0192 0.051 -0.0021 0.0209 -0.0007
C1D 0.047 0.022 0.015 0.0059 -0.002 -0.003
C2D 0.031 0.027 0.025 0.003 -0.005 -0.006
C3D 0.013 0.024 0.021 0.0004 0.0013 -0.0023
C4D 0.025 0.027 0.036 0.001 0.006 0
C5D 0.017 0.027 0.04 0.005 0.002 0.004
Co1B 0.0168 0.0172 0.0209 0.0002 0.001 -0.0016
C6H 0.023 0.03 0.021 -0.002 0.007 0.001
C1H 0.015 0.047 0.022 -0.003 0.0059 -0.002
C2H 0.025 0.031 0.027 -0.006 0.003 -0.005
C3H 0.021 0.013 0.024 -0.0023 0.0004 0.0013
Co2C 0.0171 0.0171 0.0171 0.0008 -0.0008 0.0008
N3D 0.042 0.025 0.0162 -0.0019 -0.005 -0.0023
C7D 0.041 0.02 0.027 0.002 -0.006 -0.011
O3B 0.051 0.032 0.0192 0.0007 -0.0021 -0.0209
C8D 0.02 0.017 0.03 0.0034 0.0053 0.0028
N4D 0.022 0.024 0.028 0.0033 0 0.0023
O4H 0.0317 0.0228 0.0227 0.0074 0.0025 -0.0032
N3H 0.0162 0.042 0.025 -0.0023 -0.0019 -0.005
C7H 0.027 0.041 0.02 -0.011 0.002 -0.006
O3F 0.0192 0.051 0.032 -0.0209 0.0007 -0.0021
Co3C 0.0197 0.0197 0.0197 -0.0014 -0.0014 0.0014
Co4C 0.021 0.021 0.021 -0.0017 0.0017 -0.0017
Co3A 0.0197 0.0197 0.0197 0.0014 -0.0014 -0.0014
Co1F 0.0209 0.0168 0.0172 -0.0016 0.0002 0.001
loop_
_geom_bond_atom_site_label_1
_geom_bond_atom_site_label_2
_geom_bond_site_symmetry_1
_geom_bond_site_symmetry_2
Co1 N1 1_555 1_555
N1 C1 1_555 1_555
O1 Co1 1_555 1_555
N2 Co1 1_555 1_555
O2 Co1 1_555 1_555
O3 Co1 1_555 1_555
C1 N3 1_555 1_555
C2 N1 1_555 1_555
Co2 O1 1_555 1_555
C3 O1 1_555 1_555
C4 N2 1_555 1_555
C5 N2 1_555 1_555
C6 O2 1_555 1_555
N3 C7 1_555 1_555
H1 C1 1_555 1_555
C7 C2 1_555 1_555
O4 Co2 1_555 1_555
C8 C4 1_555 1_555
H2 C4 1_555 1_555
N4 C5 1_555 1_555
H3 C5 1_555 1_555
Co3 N3 1_555 1_555
H4 C7 1_555 1_555
Co4 O4 1_555 1_555
O5 Co3 1_555 1_555
O1G Co2 1_555 1_555
O1J Co2 1_555 1_555
O4G Co2 1_555 1_555
O4J Co2 1_555 1_555
O3J C3 1_555 1_555
C8H C6 1_555 1_555
Co1J O1J 1_555 1_555
C6D C8 1_555 1_555
Co4B N4 1_555 1_555
C4H C8H 1_555 1_555
N4H Co4 1_555 1_555
N3E Co3 1_555 1_555
N3K Co3 1_555 1_555
O2D C6D 1_555 1_555
O4D C6D 1_555 1_555
O4K Co4B 1_555 1_555
O4B Co4B 1_555 1_555
N4F Co4B 1_555 1_555
N4I Co4B 1_555 1_555
N2H C4H 1_555 1_555
H2H C4H 1_555 1_555
C5H N4H 1_555 1_555
Co1D O2D 1_555 1_555
Co2B O4D 1_555 1_555
Co1H N2H 1_555 1_555
H3H C5H 1_555 1_555
N1D Co1D 1_555 1_555
O1D Co1D 1_555 1_555
N2D Co1D 1_555 1_555
O3D Co1D 1_555 1_555
O2H Co1H 1_555 1_555
N1H Co1H 1_555 1_555
O1H Co1H 1_555 1_555
O3H Co1H 1_555 1_555
C1D N1D 1_555 1_555
C2D N1D 1_555 1_555
C3D O1D 1_555 1_555
C4D N2D 1_555 1_555
C5D N2D 1_555 1_555
Co1B O3B 1_555 1_555
C6H O2H 1_555 1_555
C1H N1H 1_555 1_555
C2H N1H 1_555 1_555
C3H O1H 1_555 1_555
Co2C O1H 1_555 1_555
N3D C1D 1_555 1_555
H1D C1D 1_555 1_555
C7D C2D 1_555 1_555
O3B C3D 1_555 1_555
C8D C4D 1_555 1_555
H2D C4D 1_555 1_555
N4D C5D 1_555 1_555
H3D C5D 1_555 1_555
O4H C6H 1_555 1_555
N3H C1H 1_555 1_555
H1H C1H 1_555 1_555
C7H C2H 1_555 1_555
O3F C3H 1_555 1_555
Co3C N3D 1_555 1_555
H4D C7D 1_555 1_555
Co4C N4D 1_555 1_555
Co3A N3H 1_555 1_555
H4H C7H 1_555 1_555
Co1F O3F 1_555 1_555
C2 C3 1_555 1_555
C6 O4 1_555 1_555
C8 N4 1_555 1_555
Co4 O4G 1_555 1_555
Co4 O4J 1_555 1_555
O3J Co1J 1_555 1_555
C8H N4H 1_555 1_555
Co4B O4D 1_555 1_555
O4K Co2B 1_555 1_555
O4B Co2B 1_555 1_555
N2H C5H 1_555 1_555
Co2B O1D 1_555 1_555
C2D C3D 1_555 1_555
C6H C8D 1_555 1_555
C2H C3H 1_555 1_555
Co2C O4H 1_555 1_555
N3D C7D 1_555 1_555
C8D N4D 1_555 1_555
O4H Co4C 1_555 1_555
N3H C7H 1_555 1_555

#END
