
#######################################################################
#
#                 Cambridge Crystallographic Data Centre
#                                CCDC 
#
#######################################################################
#
# If this CIF has been generated from an entry in the Cambridge 
# Structural Database, then it will include bibliographic, chemical, 
# crystal, experimental, refinement or atomic coordinate data resulting 
# from the CCDC's data processing and validation procedures.
#
#######################################################################

data_DOYBUQ01
_chemical_formula_moiety         '(C20 H12 Fe2 N12 Pt2 S1)n'
_symmetry_cell_setting           orthorhombic
_symmetry_space_group_name_H-M   'F m m m'
_symmetry_Int_Tables_number      69
_space_group_name_Hall           '-F 2 2'
loop_
_symmetry_equiv_pos_site_id
_symmetry_equiv_pos_as_xyz
1 x,y,z
2 -x,-y,z
3 x,-y,-z
4 -x,y,-z
5 x,1/2+y,1/2+z
6 -x,1/2-y,1/2+z
7 x,1/2-y,1/2-z
8 -x,1/2+y,1/2-z
9 1/2+x,y,1/2+z
10 1/2-x,-y,1/2+z
11 1/2+x,-y,1/2-z
12 1/2-x,y,1/2-z
13 1/2+x,1/2+y,z
14 1/2-x,1/2-y,z
15 1/2+x,1/2-y,-z
16 1/2-x,1/2+y,-z
17 -x,-y,-z
18 x,y,-z
19 -x,y,z
20 x,-y,z
21 -x,1/2-y,1/2-z
22 x,1/2+y,1/2-z
23 -x,1/2+y,1/2+z
24 x,1/2-y,1/2+z
25 1/2-x,-y,1/2-z
26 1/2+x,y,1/2-z
27 1/2-x,y,1/2+z
28 1/2+x,-y,1/2+z
29 1/2-x,1/2-y,-z
30 1/2+x,1/2+y,-z
31 1/2-x,1/2+y,z
32 1/2+x,1/2-y,z
_cell_length_a                   14.195(3)
_cell_length_b                   14.644(3)
_cell_length_c                   29.175(6)
_cell_angle_alpha                90
_cell_angle_beta                 90
_cell_angle_gamma                90
_cell_volume                     6064.65
loop_
_atom_site_label
_atom_site_type_symbol
_atom_site_fract_x
_atom_site_fract_y
_atom_site_fract_z
_atom_site_U_iso_or_equiv
_atom_site_thermal_displace_type
Pt1 Pt 0.26950(2) 0.0000 0.374971(14) 0.0159 Uani
Fe1 Fe 0.2500 0.2500 0.5000 0.0174 Uani
Fe2 Fe 0.2500 0.2500 0.2500 0.0036 Uani
N1 N 0.2597(4) 0.1513(4) 0.4512(2) 0.0163 Uani
N2 N 0.2571(3) 0.1497(4) 0.2986(2) 0.0137 Uani
N3 N 0.1021(7) 0.2437(5) 0.5000 0.0183 Uani
N4 N 0.0999(7) 0.2500 0.2500 0.0170 Uani
C1 C 0.2665(5) 0.0959(5) 0.4236(2) 0.0160 Uani
C2 C 0.2654(4) 0.0955(5) 0.3263(2) 0.0163 Uani
C3 C 0.0494(9) 0.1672(8) 0.5000 0.0300 Uani
C4 C 0.0495(8) 0.3209(7) 0.5000 0.0217 Uani
C5 C 0.0483(5) 0.1740(5) 0.2576(2) 0.0183 Uani
H1 H 0.0810 0.1100 0.5000 0.0360 Uiso
H2 H 0.0813 0.3780 0.5000 0.0260 Uiso
H3 H 0.0803 0.1182 0.2633 0.0220 Uiso
N3R N -0.1021(7) 0.2437(5) 0.5000 0.0183 Uani
C3R C -0.0494(9) 0.1672(8) 0.5000 0.0300 Uani
C4R C -0.0495(8) 0.3209(7) 0.5000 0.0217 Uani
H1R H -0.0810 0.1100 0.5000 0.0360 Uiso
H2R H -0.0813 0.3780 0.5000 0.0260 Uiso
N4R N -0.0999(7) 0.2500 0.2500 0.0170 Uani
C5R C -0.0483(5) 0.1740(5) 0.2576(2) 0.0183 Uani
H3R H -0.0803 0.1182 0.2633 0.0220 Uiso
C5T C -0.0483(5) 0.3260(5) 0.2424(2) 0.0183 Uani
H3T H -0.0803 0.3818 0.2367 0.0220 Uiso
C5F C 0.0483(5) 0.3260(5) 0.2424(2) 0.0183 Uani
H3F H 0.0803 0.3818 0.2367 0.0220 Uiso
N1S N 0.2597(4) -0.1513(4) 0.4512(2) 0.0163 Uani
N2S N 0.2571(3) -0.1497(4) 0.2986(2) 0.0137 Uani
C1S C 0.2665(5) -0.0959(5) 0.4236(2) 0.0160 Uani
C2S C 0.2654(4) -0.0955(5) 0.3263(2) 0.0163 Uani
Pt1B Pt 0.26950(2) 0.0000 0.625029(14) 0.0159 Uani
N1Q N 0.2597(4) 0.1513(4) 0.5488(2) 0.0163 Uani
N2Q N 0.2571(3) 0.1497(4) 0.7014(2) 0.0137 Uani
C1Q C 0.2665(5) 0.0959(5) 0.5764(2) 0.0160 Uani
C2Q C 0.2654(4) 0.0955(5) 0.6737(2) 0.0163 Uani
N1B N 0.2597(4) -0.1513(4) 0.5488(2) 0.0163 Uani
N2B N 0.2571(3) -0.1497(4) 0.7014(2) 0.0137 Uani
C1B C 0.2665(5) -0.0959(5) 0.5764(2) 0.0160 Uani
C2B C 0.2654(4) -0.0955(5) 0.6737(2) 0.0163 Uani
Fe1R Fe -0.2500 0.2500 0.5000 0.0174 Uani
Fe1S Fe 0.2500 -0.2500 0.5000 0.0174 Uani
Fe2R Fe -0.2500 0.2500 0.2500 0.0036 Uani
Fe2S Fe 0.2500 -0.2500 0.2500 0.0036 Uani
Fe2B Fe 0.2500 -0.2500 0.7500 0.0036 Uani
Fe2Q Fe 0.2500 0.2500 0.7500 0.0036 Uani
N1M N 0.2403(4) 0.3487(4) 0.4512(2) 0.0163 Uani
N1BA N 0.2403(4) 0.3487(4) 0.5488(2) 0.0163 Uani
N2F N 0.2571(3) 0.3503(4) 0.2014(2) 0.0137 Uani
N2K N 0.2429(3) 0.1497(4) 0.2014(2) 0.0137 Uani
N2M N 0.2429(3) 0.3503(4) 0.2986(2) 0.0137 Uani
N3M N 0.3979(7) 0.2563(5) 0.5000 0.0183 Uani
N4K N 0.4001(7) 0.2500 0.2500 0.0170 Uani
S1 S 0.0000 0.3102(2) 0.37023(11) 0.0294 Uani
C6 C 0.0860(5) 0.2289(5) 0.3744(2) 0.0233 Uani
C7 C 0.0503(4) 0.1438(6) 0.3784(2) 0.0273 Uani
H4 H 0.1516 0.2422 0.3739 0.0280 Uiso
H5 H 0.0877 0.0903 0.3809 0.0330 Uiso
C6R C -0.0860(5) 0.2289(5) 0.3744(2) 0.0233 Uani
C7R C -0.0503(4) 0.1438(6) 0.3784(2) 0.0273 Uani
H4R H -0.1516 0.2422 0.3739 0.0280 Uiso
H5R H -0.0877 0.0903 0.3809 0.0330 Uiso
loop_
_atom_site_aniso_label
_atom_site_aniso_U_11
_atom_site_aniso_U_22
_atom_site_aniso_U_33
_atom_site_aniso_U_23
_atom_site_aniso_U_13
_atom_site_aniso_U_12
Pt1 0.0159(2) 0.0265(2) 0.00525(18) 0.0000 -0.00002(16) 0.0000
Fe1 0.0267(12) 0.0255(13) 0.0000(10) 0.0000 0.0000 0.0008(7)
Fe2 0.0003(7) 0.0000(7) 0.0104(10) 0.0000 0.0000 0.0000
N1 0.017(2) 0.019(3) 0.013(3) 0.010(2) -0.003(2) -0.005(2)
N2 0.014(2) 0.017(3) 0.010(3) 0.000(2) 0.0021(18) -0.0023(19)
N3 0.039(5) 0.007(3) 0.009(4) 0.0000 0.0000 0.006(3)
N4 0.038(5) 0.013(4) 0.000(3) 0.000(2) 0.0000 0.0000
C1 0.015(3) 0.026(3) 0.007(3) 0.004(2) 0.000(2) -0.005(2)
C2 0.012(2) 0.026(3) 0.011(3) -0.006(2) 0.001(2) -0.001(2)
C3 0.036(6) 0.013(5) 0.041(7) 0.0000 0.0000 0.004(4)
C4 0.030(5) 0.005(4) 0.030(5) 0.0000 0.0000 -0.002(3)
C5 0.027(3) 0.012(3) 0.016(3) 0.003(2) 0.002(2) -0.001(2)
N3R 0.039 0.007 0.009 0 0 -0.006
C3R 0.036 0.013 0.041 0 0 -0.004
C4R 0.03 0.005 0.03 0 0 0.002
N4R 0.038 0.013 0 0 0 0
C5R 0.027 0.012 0.016 0.003 -0.002 0.001
C5T 0.027 0.012 0.016 0.003 0.002 -0.001
C5F 0.027 0.012 0.016 0.003 -0.002 0.001
N1S 0.017 0.019 0.013 -0.01 -0.003 0.005
N2S 0.014 0.017 0.01 0 0.0021 0.0023
C1S 0.015 0.026 0.007 -0.004 0 0.005
C2S 0.012 0.026 0.011 0.006 0.001 0.001
Pt1B 0.0159 0.0265 0.00525 0 2e-05 0
N1Q 0.017 0.019 0.013 -0.01 0.003 -0.005
N2Q 0.014 0.017 0.01 0 -0.0021 -0.0023
C1Q 0.015 0.026 0.007 -0.004 0 -0.005
C2Q 0.012 0.026 0.011 0.006 -0.001 -0.001
N1B 0.017 0.019 0.013 0.01 0.003 0.005
N2B 0.014 0.017 0.01 0 -0.0021 0.0023
C1B 0.015 0.026 0.007 0.004 0 0.005
C2B 0.012 0.026 0.011 -0.006 -0.001 0.001
Fe1R 0.0267 0.0255 0 0 0 -0.0008
Fe1S 0.0267 0.0255 0 0 0 -0.0008
Fe2R 0.0003 0 0.0104 0 0 0
Fe2S 0.0003 0 0.0104 0 0 0
Fe2B 0.0003 0 0.0104 0 0 0
Fe2Q 0.0003 0 0.0104 0 0 0
N1M 0.017 0.019 0.013 -0.01 0.003 -0.005
N1BA 0.017 0.019 0.013 0.01 -0.003 -0.005
N2F 0.014 0.017 0.01 0 -0.0021 0.0023
N2K 0.014 0.017 0.01 0 0.0021 0.0023
N2M 0.014 0.017 0.01 0 -0.0021 -0.0023
N3M 0.039 0.007 0.009 0 0 0.006
N4K 0.038 0.013 0 0 0 0
S1 0.0264(13) 0.0248(13) 0.0371(16) -0.0057(12) 0.0000 0.0000
C6 0.016(3) 0.035(4) 0.019(3) 0.002(3) 0.000(3) -0.001(2)
C7 0.014(3) 0.039(4) 0.029(4) 0.007(3) 0.000(3) 0.000(2)
C6R 0.016 0.035 0.019 0.002 0 0.001
C7R 0.014 0.039 0.029 0.007 0 0
loop_
_geom_bond_atom_site_label_1
_geom_bond_atom_site_label_2
_geom_bond_site_symmetry_1
_geom_bond_site_symmetry_2
Pt1 C1 1_555 1_555
Fe1 N1 1_555 1_555
Fe2 N2 1_555 1_555
N1 C1 1_555 1_555
N2 C2 1_555 1_555
N3 Fe1 1_555 1_555
N4 Fe2 1_555 1_555
C2 Pt1 1_555 1_555
C3 N3 1_555 1_555
C4 N3 1_555 1_555
C5 N4 1_555 1_555
H1 C3 1_555 1_555
H2 C4 1_555 1_555
H3 C5 1_555 1_555
S1 C6 1_555 1_555
C6 C7 1_555 1_555
C7 H5 1_555 1_555
H4 C6 1_555 1_555
N3R C3R 1_555 1_555
C3R C3 1_555 1_555
C4R C4 1_555 1_555
H1R C3R 1_555 1_555
H2R C4R 1_555 1_555
N4R C5R 1_555 1_555
C5R C5 1_555 1_555
H3R C5R 1_555 1_555
C5T N4R 1_555 1_555
H3T C5T 1_555 1_555
C5F N4 1_555 1_555
H3F C5F 1_555 1_555
N1S C1S 1_555 1_555
N2S C2S 1_555 1_555
C1S Pt1 1_555 1_555
C2S Pt1 1_555 1_555
Pt1B C1Q 1_555 1_555
N1Q Fe1 1_555 1_555
N2Q C2Q 1_555 1_555
C1Q N1Q 1_555 1_555
C2Q Pt1B 1_555 1_555
N1B C1B 1_555 1_555
N2B C2B 1_555 1_555
C1B Pt1B 1_555 1_555
C2B Pt1B 1_555 1_555
Fe1R N3R 1_555 1_555
Fe1S N1S 1_555 1_555
Fe2R N4R 1_555 1_555
Fe2S N2S 1_555 1_555
Fe2B N2B 1_555 1_555
Fe2Q N2Q 1_555 1_555
N1M Fe1 1_555 1_555
N1BA Fe1 1_555 1_555
N2F Fe2 1_555 1_555
N2K Fe2 1_555 1_555
N2M Fe2 1_555 1_555
N3M Fe1 1_555 1_555
N4K Fe2 1_555 1_555
C6R S1 1_555 1_555
C7R C7 1_555 1_555
H4R C6R 1_555 1_555
H5R C7R 1_555 1_555
N3R C4R 1_555 1_555
C5T C5F 1_555 1_555
N1B Fe1S 1_555 1_555
C6R C7R 1_555 1_555

#END
