
#######################################################################
#
#                 Cambridge Crystallographic Data Centre
#                                CCDC 
#
#######################################################################
#
# If this CIF has been generated from an entry in the Cambridge 
# Structural Database, then it will include bibliographic, chemical, 
# crystal, experimental, refinement or atomic coordinate data resulting 
# from the CCDC's data processing and validation procedures.
#
#######################################################################

data_HOWRUI
_chemical_formula_moiety         '(C40 H52 Cu3 N2 O24)n'
_symmetry_cell_setting           monoclinic
_symmetry_space_group_name_H-M   'C 2'
_symmetry_Int_Tables_number      5
_space_group_name_Hall           'C 2y'
loop_
_symmetry_equiv_pos_site_id
_symmetry_equiv_pos_as_xyz
1 x,y,z
2 -x,y,-z
3 1/2+x,1/2+y,z
4 1/2-x,1/2+y,-z
_cell_length_a                   21.7630(6)
_cell_length_b                   11.0749(4)
_cell_length_c                   19.5074(5)
_cell_angle_alpha                90
_cell_angle_beta                 92.760(3)
_cell_angle_gamma                90
_cell_volume                     4696.28
loop_
_atom_site_label
_atom_site_type_symbol
_atom_site_fract_x
_atom_site_fract_y
_atom_site_fract_z
_atom_site_U_iso_or_equiv
_atom_site_thermal_displace_type
Cu1 Cu -0.01913(2) 0.52672(6) 0.56235(3) 0.0202 Uani
Cu2 Cu 0.19792(2) -0.10111(5) 0.80516(3) 0.0210 Uani
Cu3 Cu 0.12186(3) 0.06512(5) 0.85030(3) 0.0217 Uani
O1 O -0.23759(15) -0.4900(4) 0.84284(18) 0.0329 Uani
O2 O 0.07968(15) 0.4116(4) 0.47841(16) 0.0275 Uani
O3 O 0.04032(15) 0.3976(4) 0.58190(17) 0.0320 Uani
O4 O 0.11908(15) -0.1744(4) 0.77267(18) 0.0319 Uani
C1 C 0.1713(2) 0.0838(5) 0.7122(2) 0.0245 Uani
O5 O 0.45145(17) 0.1428(4) 0.42163(19) 0.0330 Uani
O6 O 0.20085(16) -0.0137(3) 0.71815(17) 0.0307 Uani
O7 O 0.05479(16) -0.0313(4) 0.80935(19) 0.0339 Uani
O8 O -0.11840(16) -0.0386(3) 1.06787(16) 0.0298 Uani
C2 C -0.1529(2) -0.1300(5) 1.0609(2) 0.0255 Uani
O9 O 0.42631(16) 0.1572(4) 0.53136(19) 0.0309 Uani
O10 O 0.13910(17) 0.1310(4) 0.75717(17) 0.0325 Uani
O11 O -0.30220(16) -0.3630(4) 0.89060(19) 0.0342 Uani
C3 C 0.4203(2) 0.1829(5) 0.4684(3) 0.0261 Uani
C4 C -0.1419(2) -0.3240(6) 0.8720(2) 0.0301 Uani
H1 H -0.1390 -0.3681 0.8317 0.0360 Uiso
O12 O -0.18898(16) -0.1681(4) 1.10300(17) 0.0328 Uani
C5 C 0.0794(2) 0.3732(5) 0.5387(3) 0.0242 Uani
C6 C -0.1489(2) -0.1987(5) 0.9944(2) 0.0256 Uani
C7 C -0.0924(2) -0.2547(5) 0.8963(3) 0.0274 Uani
C8 C -0.2498(2) -0.3993(5) 0.8783(2) 0.0252 Uani
C9 C -0.0351(2) -0.2502(6) 0.8565(3) 0.0321 Uani
C10 C 0.2303(2) 0.2036(6) 0.5445(3) 0.0315 Uani
N1 N -0.04028(19) -0.2035(5) 0.7928(2) 0.0322 Uani
N2 N 0.3206(2) 0.2817(4) 0.4925(2) 0.0326 Uani
C11 C -0.1968(2) -0.3281(5) 0.9079(2) 0.0262 Uani
C12 C 0.1281(2) 0.2298(5) 0.6252(2) 0.0246 Uani
H2 H 0.0947 0.2404 0.6525 0.0290 Uiso
O13 O -0.05514(17) 0.5216(5) 0.66618(17) 0.0467 Uani
C13 C 0.0670(2) -0.1297(5) 0.7812(2) 0.0281 Uani
C14 C 0.1755(2) 0.1524(5) 0.6457(2) 0.0257 Uani
C15 C 0.1831(2) 0.2806(5) 0.5235(3) 0.0311 Uani
H3 H 0.1858 0.3247 0.4832 0.0370 Uiso
C16 C -0.1996(2) -0.2647(5) 0.9688(2) 0.0265 Uani
H4 H -0.2355 -0.2660 0.9928 0.0320 Uiso
C17 C 0.0118(2) -0.2007(6) 0.7491(3) 0.0338 Uani
H5 H 0.0242 -0.2829 0.7374 0.0410 Uiso
C18 C 0.2835(2) 0.1869(6) 0.5001(3) 0.0339 Uani
O14 O 0.26126(19) -0.2463(4) 0.7799(2) 0.0466 Uani
C19 C 0.2256(2) 0.1372(5) 0.6053(3) 0.0282 Uani
H6 H 0.2564 0.0826 0.6185 0.0340 Uiso
C20 C 0.1312(2) 0.2923(5) 0.5628(3) 0.0253 Uani
C21 C -0.0955(2) -0.1930(5) 0.9576(2) 0.0263 Uani
H7 H -0.0620 -0.1478 0.9744 0.0320 Uiso
O15 O 0.01393(18) -0.2868(5) 0.8808(2) 0.0512 Uani
O16 O 0.29186(19) 0.0918(5) 0.4696(3) 0.0580 Uani
O17 O 0.0716(2) 0.2228(4) 0.8750(3) 0.0576 Uani
C22 C 0.3718(3) 0.2759(6) 0.4460(3) 0.0369 Uani
H8 H 0.3561 0.2586 0.3991 0.0450 Uiso
C23 C -0.0137(3) -0.1344(7) 0.6850(3) 0.0493 Uani
H9 H 0.0177 -0.0840 0.6659 0.0600 Uiso
H10 H -0.0287 -0.1912 0.6502 0.0600 Uiso
C24 C 0.3221(3) 0.3912(7) 0.5346(4) 0.0540 Uani
H11 H 0.3201 0.3717 0.5829 0.0650 Uiso
H12 H 0.2884 0.4447 0.5213 0.0650 Uiso
C25 C 0.3990(3) 0.4034(7) 0.4499(4) 0.0589 Uani
H13 H 0.4431 0.4014 0.4452 0.0710 Uiso
H14 H 0.3805 0.4545 0.4141 0.0710 Uiso
C26 C -0.0660(3) -0.0578(8) 0.7104(3) 0.0660 Uani
H15 H -0.0506 0.0170 0.7305 0.0790 Uiso
H16 H -0.0957 -0.0390 0.6732 0.0790 Uiso
C27 C -0.0943(3) -0.1360(7) 0.7633(3) 0.0473 Uani
H17 H -0.1132 -0.0877 0.7980 0.0570 Uiso
H18 H -0.1248 -0.1903 0.7425 0.0570 Uiso
C28 C 0.3836(3) 0.4479(7) 0.5197(4) 0.0599 Uani
H19 H 0.3806 0.5353 0.5200 0.0720 Uiso
H20 H 0.4150 0.4235 0.5538 0.0720 Uiso
C29 C -0.0246(4) 0.4623(10) 0.7214(4) 0.0840 Uani
H21 H -0.0318 0.5048 0.7638 0.1010 Uiso
H22 H 0.0194 0.4620 0.7151 0.1010 Uiso
C30 C -0.1187(4) 0.5091(13) 0.6720(4) 0.1045 Uani
H23 H -0.1300 0.5586 0.7104 0.1250 Uiso
H24 H -0.1385 0.5443 0.6311 0.1250 Uiso
O18 O -0.1136(5) 0.3329(11) 0.7315(5) 0.1669 Uani
C31 C -0.1438(5) 0.4001(19) 0.6804(7) 0.2152 Uani
H25 H -0.1432 0.3560 0.6375 0.2570 Uiso
H26 H -0.1865 0.4101 0.6916 0.2570 Uiso
C32 C -0.0480(8) 0.3321(12) 0.7262(6) 0.1496 Uani
H27 H -0.0373 0.2873 0.6857 0.1800 Uiso
H28 H -0.0286 0.2927 0.7661 0.1800 Uiso
Cu1A Cu 0.01913(2) 0.52672(6) 0.43765(3) 0.0202 Uani
Cu1B Cu 0.48087(2) 0.02672(6) 0.56235(3) 0.0202 Uani
Cu1C Cu 0.51913(2) 0.02672(6) 0.43765(3) 0.0202 Uani
Cu2A Cu -0.19792(2) -0.10111(5) 1.19484(3) 0.0210 Uani
Cu2B Cu -0.30208(2) -0.60111(5) 0.80516(3) 0.0210 Uani
Cu3A Cu -0.12186(3) 0.06512(5) 1.14970(3) 0.0217 Uani
Cu3B Cu -0.37814(3) -0.43488(5) 0.85030(3) 0.0217 Uani
O1B O 0.26241(15) 0.0100(4) 0.84284(18) 0.0329 Uani
O2A O -0.07968(15) 0.4116(4) 0.52159(16) 0.0275 Uani
O5C O 0.04855(17) 0.6428(4) 0.57837(19) 0.0330 Uani
O8A O 0.11840(16) -0.0386(3) 0.93213(16) 0.0298 Uani
O9B O -0.07369(16) 0.6572(4) 0.53136(19) 0.0309 Uani
O11B O 0.19780(16) 0.1370(4) 0.89060(19) 0.0342 Uani
O12A O 0.18898(16) -0.1681(4) 0.89700(17) 0.0328 Uani
O19 O -0.0000 -0.4384(7) 1.0000 0.0841 Uani
O20 O 0.2359(3) 0.5119(7) 0.8255(5) 0.1106 Uani
O21 O 0.1132(3) 0.4498(7) 0.8188(5) 0.1183 Uani
C33 C 0.1369(4) 0.5253(11) 0.8709(6) 0.1031 Uani
H29 H 0.1142 0.5129 0.9118 0.1240 Uiso
H30 H 0.1314 0.6088 0.8568 0.1240 Uiso
C34 C 0.2033(5) 0.5025(14) 0.8873(6) 0.1207 Uani
H31 H 0.2192 0.5612 0.9206 0.1450 Uiso
H32 H 0.2089 0.4225 0.9069 0.1450 Uiso
C35 C 0.1453(5) 0.4642(12) 0.7569(7) 0.1134 Uani
H33 H 0.1415 0.5464 0.7400 0.1360 Uiso
H34 H 0.1291 0.4097 0.7216 0.1360 Uiso
C36 C 0.2135(5) 0.4340(10) 0.7764(7) 0.1220 Uani
H35 H 0.2166 0.3518 0.7934 0.1460 Uiso
H36 H 0.2377 0.4401 0.7360 0.1460 Uiso
O22 O 0.4534(3) -0.2648(8) 0.9098(5) 0.1242 Uani
O23 O 0.3294(3) -0.2821(8) 0.9168(5) 0.1224 Uani
C37 C 0.4228(5) -0.3660(10) 0.8926(9) 0.1576 Uani
H37 H 0.4487 -0.4344 0.9056 0.1900 Uiso
H38 H 0.4164 -0.3678 0.8431 0.1900 Uiso
C38 C 0.3630(5) -0.1814(13) 0.9551(7) 0.1385 Uani
H39 H 0.3377 -0.1093 0.9551 0.1660 Uiso
H40 H 0.3724 -0.2050 1.0024 0.1660 Uiso
C39 C 0.3666(4) -0.3813(12) 0.9212(6) 0.1190 Uani
H41 H 0.3454 -0.4484 0.8986 0.1430 Uiso
H42 H 0.3735 -0.4026 0.9692 0.1430 Uiso
C40 C 0.4203(6) -0.1576(11) 0.9199(8) 0.1392 Uani
H43 H 0.4104 -0.1201 0.8758 0.1670 Uiso
H44 H 0.4458 -0.1019 0.9471 0.1670 Uiso
O24 O 0.2910(9) -0.399(2) 0.6574(7) 0.1680 Uani
loop_
_atom_site_aniso_label
_atom_site_aniso_U_11
_atom_site_aniso_U_22
_atom_site_aniso_U_33
_atom_site_aniso_U_23
_atom_site_aniso_U_13
_atom_site_aniso_U_12
Cu1 0.0136(3) 0.0268(3) 0.0205(3) 0.0000(3) 0.0037(2) 0.0002(3)
Cu2 0.0175(3) 0.0233(3) 0.0225(3) 0.0022(3) 0.0040(2) -0.0006(2)
Cu3 0.0171(3) 0.0251(3) 0.0230(3) 0.0006(3) 0.0019(2) -0.0011(2)
O1 0.0215(18) 0.034(2) 0.043(2) -0.009(2) -0.0001(15) -0.0057(18)
O2 0.0246(18) 0.033(2) 0.0250(17) 0.0086(17) 0.0025(13) 0.0052(16)
O3 0.0220(18) 0.041(2) 0.0338(18) 0.0118(19) 0.0094(14) 0.0120(18)
O4 0.0182(18) 0.041(2) 0.0370(19) -0.0075(18) 0.0051(15) -0.0078(17)
C1 0.021(2) 0.028(3) 0.024(2) 0.004(2) -0.004(2) -0.007(2)
O5 0.0267(19) 0.041(2) 0.0323(19) 0.0028(18) 0.0103(16) 0.0117(17)
O6 0.033(2) 0.034(2) 0.0255(17) 0.0082(16) 0.0043(15) 0.0039(18)
O7 0.0248(19) 0.039(2) 0.038(2) -0.0067(19) 0.0020(16) -0.0062(17)
O8 0.033(2) 0.032(2) 0.0251(17) -0.0099(16) 0.0081(15) -0.0049(18)
C2 0.022(2) 0.033(3) 0.021(2) -0.004(2) -0.003(2) 0.000(2)
O9 0.0248(19) 0.035(2) 0.033(2) 0.0046(17) 0.0029(15) 0.0065(17)
O10 0.035(2) 0.037(2) 0.0263(18) 0.0080(17) 0.0083(16) 0.0054(18)
O11 0.0217(19) 0.041(3) 0.040(2) -0.0101(19) 0.0036(16) -0.0044(17)
C3 0.017(2) 0.026(3) 0.036(3) 0.000(2) 0.007(2) -0.002(2)
C4 0.027(3) 0.041(3) 0.023(2) -0.011(3) 0.007(2) -0.009(3)
O12 0.032(2) 0.041(3) 0.0261(17) -0.0100(17) 0.0093(15) -0.0066(18)
C5 0.017(2) 0.022(3) 0.034(3) 0.001(2) 0.005(2) -0.001(2)
C6 0.026(3) 0.030(3) 0.021(2) -0.005(2) 0.0037(19) -0.002(2)
C7 0.020(2) 0.034(3) 0.029(3) 0.000(2) 0.009(2) -0.007(2)
C8 0.026(3) 0.027(3) 0.023(2) 0.002(2) 0.004(2) -0.002(2)
C9 0.023(3) 0.040(3) 0.034(3) -0.017(3) 0.010(2) -0.009(3)
C10 0.019(3) 0.040(3) 0.036(3) 0.005(3) 0.006(2) 0.003(3)
N1 0.022(2) 0.045(3) 0.030(2) -0.004(2) 0.0055(18) -0.010(2)
N2 0.027(2) 0.034(3) 0.038(2) 0.007(2) 0.0153(19) 0.009(2)
C11 0.024(3) 0.032(3) 0.023(2) 0.001(2) 0.005(2) -0.006(2)
C12 0.017(2) 0.033(3) 0.024(2) -0.003(2) 0.0022(19) 0.003(2)
O13 0.040(2) 0.070(3) 0.0308(18) 0.003(2) 0.0105(16) 0.006(2)
C13 0.027(3) 0.038(4) 0.020(2) 0.001(2) 0.007(2) -0.014(3)
C14 0.027(3) 0.029(3) 0.021(2) 0.002(2) 0.001(2) -0.001(2)
C15 0.022(3) 0.040(3) 0.032(3) 0.008(3) 0.008(2) 0.005(3)
C16 0.021(3) 0.032(3) 0.027(2) -0.003(2) 0.006(2) 0.001(2)
C17 0.024(3) 0.046(4) 0.032(3) -0.017(3) 0.008(2) -0.009(3)
C18 0.025(3) 0.044(4) 0.033(3) 0.007(3) 0.004(2) 0.008(3)
O14 0.041(2) 0.041(3) 0.059(3) 0.000(2) 0.016(2) 0.011(2)
C19 0.019(2) 0.033(3) 0.033(3) 0.010(2) 0.004(2) 0.006(2)
C20 0.018(2) 0.027(3) 0.031(3) 0.005(2) 0.002(2) 0.001(2)
C21 0.019(2) 0.032(3) 0.028(2) -0.008(2) 0.001(2) -0.005(2)
O15 0.029(2) 0.079(4) 0.046(2) 0.009(2) 0.0062(18) 0.006(2)
O16 0.041(2) 0.054(3) 0.081(3) -0.019(3) 0.024(2) 0.000(2)
O17 0.039(2) 0.049(3) 0.086(3) -0.015(3) 0.016(2) 0.006(2)
C22 0.032(3) 0.043(4) 0.037(3) 0.012(3) 0.014(2) 0.015(3)
C23 0.048(4) 0.077(5) 0.023(2) -0.012(3) 0.002(2) -0.016(4)
C24 0.045(4) 0.046(4) 0.073(4) -0.014(4) 0.024(3) 0.004(3)
C25 0.051(4) 0.045(4) 0.083(5) 0.034(4) 0.026(3) 0.006(3)
C26 0.063(5) 0.090(6) 0.045(3) 0.019(4) 0.004(3) 0.003(4)
C27 0.029(3) 0.063(5) 0.050(3) 0.002(3) 0.002(3) -0.007(3)
C28 0.058(4) 0.048(4) 0.075(5) -0.006(4) 0.016(4) -0.014(4)
C29 0.079(6) 0.132(9) 0.040(4) 0.011(5) -0.006(4) -0.002(6)
C30 0.063(5) 0.187(12) 0.066(5) 0.029(7) 0.029(4) 0.047(7)
O18 0.162(8) 0.210(13) 0.132(7) 0.049(7) 0.041(7) -0.099(9)
C31 0.101(9) 0.40(3) 0.141(11) 0.180(16) -0.033(8) -0.118(14)
C32 0.28(2) 0.082(9) 0.087(8) 0.025(7) 0.010(11) 0.014(12)
Cu1A 0.0136 0.0268 0.0205 0 0.0037 -0.0002
Cu1B 0.0136 0.0268 0.0205 0 0.0037 0.0002
Cu1C 0.0136 0.0268 0.0205 0 0.0037 -0.0002
Cu2A 0.0175 0.0233 0.0225 -0.0022 0.004 0.0006
Cu2B 0.0175 0.0233 0.0225 0.0022 0.004 -0.0006
Cu3A 0.0171 0.0251 0.023 -0.0006 0.0019 0.0011
Cu3B 0.0171 0.0251 0.023 0.0006 0.0019 -0.0011
O1B 0.0215 0.034 0.043 -0.009 -0.0001 -0.0057
O2A 0.0246 0.033 0.025 -0.0086 0.0025 -0.0052
O5C 0.0267 0.041 0.0323 -0.0028 0.0103 -0.0117
O8A 0.033 0.032 0.0251 0.0099 0.0081 0.0049
O9B 0.0248 0.035 0.033 0.0046 0.0029 0.0065
O11B 0.0217 0.041 0.04 -0.0101 0.0036 -0.0044
O12A 0.032 0.041 0.0261 0.01 0.0093 0.0066
O19 0.112(6) 0.052(5) 0.086(5) 0.000 -0.019(5) 0.000
O20 0.079(4) 0.080(5) 0.173(7) -0.018(5) 0.009(5) -0.010(4)
O21 0.085(5) 0.072(5) 0.196(8) -0.043(6) -0.012(5) -0.010(4)
C33 0.090(7) 0.079(7) 0.141(9) -0.006(7) 0.014(6) -0.015(6)
C34 0.097(8) 0.154(13) 0.112(8) 0.016(9) 0.014(7) 0.003(8)
C35 0.085(7) 0.105(9) 0.151(10) -0.048(8) 0.014(7) -0.008(7)
C36 0.143(11) 0.061(6) 0.166(11) -0.046(7) 0.048(9) -0.021(7)
O22 0.051(3) 0.103(6) 0.223(9) -0.052(6) 0.053(5) -0.010(4)
O23 0.075(5) 0.126(7) 0.166(8) 0.025(6) 0.004(5) 0.017(5)
C37 0.081(7) 0.059(7) 0.34(2) -0.024(10) 0.085(10) -0.015(6)
C38 0.064(6) 0.170(13) 0.180(12) -0.099(11) -0.009(7) 0.054(8)
C39 0.057(6) 0.132(11) 0.166(11) 0.074(9) -0.016(6) 0.001(6)
C40 0.155(12) 0.073(8) 0.194(14) -0.014(9) 0.054(11) -0.023(9)
O24 0.194(16) 0.23(2) 0.075(8) -0.056(12) -0.044(10) 0.074(17)
loop_
_geom_bond_atom_site_label_1
_geom_bond_atom_site_label_2
_geom_bond_site_symmetry_1
_geom_bond_site_symmetry_2
Cu1 O3 1_555 1_555
Cu2 Cu3 1_555 1_555
Cu3 O7 1_555 1_555
O1 C8 1_555 1_555
O2 C5 1_555 1_555
O3 C5 1_555 1_555
O4 Cu2 1_555 1_555
C1 O6 1_555 1_555
O5 C3 1_555 1_555
O6 Cu2 1_555 1_555
O7 C13 1_555 1_555
O8 C2 1_555 1_555
C2 O12 1_555 1_555
O9 C3 1_555 1_555
O10 Cu3 1_555 1_555
O11 C8 1_555 1_555
C3 C22 1_555 1_555
C4 H1 1_555 1_555
O12 Cu2A 1_555 1_555
C5 C20 1_555 1_555
C6 C2 1_555 1_555
C7 C4 1_555 1_555
C8 C11 1_555 1_555
C9 C7 1_555 1_555
C10 C15 1_555 1_555
N1 C9 1_555 1_555
N2 C18 1_555 1_555
C11 C4 1_555 1_555
C12 H2 1_555 1_555
O13 Cu1 1_555 1_555
C13 O4 1_555 1_555
C14 C1 1_555 1_555
C15 H3 1_555 1_555
C16 C6 1_555 1_555
H4 C16 1_555 1_555
C17 N1 1_555 1_555
H5 C17 1_555 1_555
C18 C10 1_555 1_555
O14 Cu2 1_555 1_555
C19 C10 1_555 1_555
H6 C19 1_555 1_555
C20 C12 1_555 1_555
C21 C6 1_555 1_555
H7 C21 1_555 1_555
O15 C9 1_555 1_555
O16 C18 1_555 1_555
O17 Cu3 1_555 1_555
C22 N2 1_555 1_555
H8 C22 1_555 1_555
C23 C17 1_555 1_555
H9 C23 1_555 1_555
H10 C23 1_555 1_555
C24 N2 1_555 1_555
H11 C24 1_555 1_555
H12 C24 1_555 1_555
C25 C22 1_555 1_555
H13 C25 1_555 1_555
H14 C25 1_555 1_555
C26 C23 1_555 1_555
H15 C26 1_555 1_555
H16 C26 1_555 1_555
C27 N1 1_555 1_555
H17 C27 1_555 1_555
H18 C27 1_555 1_555
C28 C24 1_555 1_555
H19 C28 1_555 1_555
H20 C28 1_555 1_555
C29 O13 1_555 1_555
H21 C29 1_555 1_555
H22 C29 1_555 1_555
C30 O13 1_555 1_555
H23 C30 1_555 1_555
H24 C30 1_555 1_555
O18 C31 1_555 1_555
C31 C30 1_555 1_555
H25 C31 1_555 1_555
H26 C31 1_555 1_555
C32 C29 1_555 1_555
H27 C32 1_555 1_555
H28 C32 1_555 1_555
O20 C34 1_555 1_555
O21 C33 1_555 1_555
C33 H29 1_555 1_555
H30 C33 1_555 1_555
C34 C33 1_555 1_555
H31 C34 1_555 1_555
H32 C34 1_555 1_555
C35 O21 1_555 1_555
H33 C35 1_555 1_555
H34 C35 1_555 1_555
C36 O20 1_555 1_555
H35 C36 1_555 1_555
H36 C36 1_555 1_555
O22 C37 1_555 1_555
O23 C38 1_555 1_555
C37 H37 1_555 1_555
H38 C37 1_555 1_555
C38 H39 1_555 1_555
H40 C38 1_555 1_555
C39 O23 1_555 1_555
H41 C39 1_555 1_555
H42 C39 1_555 1_555
C40 O22 1_555 1_555
H43 C40 1_555 1_555
H44 C40 1_555 1_555
Cu1A Cu1 1_555 1_555
Cu1B O9 1_555 1_555
Cu1C O5 1_555 1_555
Cu2A Cu3A 1_555 1_555
Cu2B O1 1_555 1_555
Cu3A O8 1_555 1_555
Cu3B O11 1_555 1_555
O1B Cu2 1_555 1_555
O2A Cu1 1_555 1_555
O5C Cu1 1_555 1_555
O8A Cu3 1_555 1_555
O9B Cu1 1_555 1_555
O11B Cu3 1_555 1_555
O12A Cu2 1_555 1_555
O2 Cu1A 1_555 1_555
C1 O10 1_555 1_555
C7 C21 1_555 1_555
C11 C16 1_555 1_555
C12 C14 1_555 1_555
C13 C17 1_555 1_555
C14 C19 1_555 1_555
C15 C20 1_555 1_555
C25 C28 1_555 1_555
C26 C27 1_555 1_555
O18 C32 1_555 1_555
C35 C36 1_555 1_555
C37 C39 1_555 1_555
C38 C40 1_555 1_555
Cu1B Cu1C 1_555 1_555
Cu2B Cu3B 1_555 1_555

#END
