
#######################################################################
#
#                 Cambridge Crystallographic Data Centre
#                                CCDC 
#
#######################################################################
#
# If this CIF has been generated from an entry in the Cambridge 
# Structural Database, then it will include bibliographic, chemical, 
# crystal, experimental, refinement or atomic coordinate data resulting 
# from the CCDC's data processing and validation procedures.
#
#######################################################################

data_HOWSAP
_chemical_formula_moiety         '(C40 H52 Cu3 N2 O24)n'
_symmetry_cell_setting           monoclinic
_symmetry_space_group_name_H-M   'C 2'
_symmetry_Int_Tables_number      5
_space_group_name_Hall           'C 2y'
loop_
_symmetry_equiv_pos_site_id
_symmetry_equiv_pos_as_xyz
1 x,y,z
2 -x,y,-z
3 1/2+x,1/2+y,z
4 1/2-x,1/2+y,-z
_cell_length_a                   21.7800(3)
_cell_length_b                   10.85510(10)
_cell_length_c                   19.4405(3)
_cell_angle_alpha                90
_cell_angle_beta                 92.0880(10)
_cell_angle_gamma                90
_cell_volume                     4593.15
loop_
_atom_site_label
_atom_site_type_symbol
_atom_site_fract_x
_atom_site_fract_y
_atom_site_fract_z
_atom_site_U_iso_or_equiv
_atom_site_thermal_displace_type
Cu1 Cu 0.301761(18) 0.14524(4) 0.19603(2) 0.0113 Uani
Cu2 Cu 0.019413(18) 0.00857(4) 0.43772(2) 0.0123 Uani
Cu3 Cu 0.377515(19) -0.02460(4) 0.15022(2) 0.0113 Uani
O1 O 0.73650(10) 0.5342(2) 0.15941(12) 0.0166 Uani
O2 O 0.46077(10) -0.3587(2) 0.41848(12) 0.0180 Uani
O3 O 0.37994(10) 0.2213(2) 0.22799(12) 0.0173 Uani
O4 O 0.04839(10) -0.1077(2) 0.58008(12) 0.0178 Uani
O5 O 0.61619(10) 0.0804(2) -0.06898(12) 0.0149 Uani
O6 O 0.44412(10) 0.0720(2) 0.19231(12) 0.0172 Uani
O7 O 0.41908(10) -0.3765(2) 0.52252(12) 0.0168 Uani
O8 O 0.07277(10) -0.1263(2) 0.46863(13) 0.0179 Uani
O9 O 0.29845(10) 0.0566(2) 0.28360(12) 0.0173 Uani
C1 C 0.32707(13) -0.0443(3) 0.28820(15) 0.0147 Uani
O10 O 0.68910(10) 0.2122(2) -0.10366(12) 0.0165 Uani
O11 O 0.35898(10) -0.0928(2) 0.24281(12) 0.0177 Uani
O12 O 0.80152(10) 0.4045(2) 0.10890(12) 0.0165 Uani
C2 C 0.64114(14) 0.3671(3) 0.13019(16) 0.0149 Uani
H1 H 0.6385 0.4101 0.1714 0.0180 Uiso
C3 C 0.65095(13) 0.1727(3) -0.06100(16) 0.0137 Uani
C4 C 0.69509(13) 0.3719(3) 0.09314(16) 0.0131 Uani
C5 C 0.53390(14) 0.2927(3) 0.14520(17) 0.0164 Uani
C6 C 0.41965(14) -0.3369(3) 0.46162(16) 0.0144 Uani
O13 O 0.05615(11) 0.0136(3) 0.33430(12) 0.0235 Uani
N1 N 0.53966(11) 0.2489(3) 0.20966(14) 0.0156 Uani
C7 C 0.07898(14) -0.1515(3) 0.53154(18) 0.0173 Uani
O14 O 0.42614(11) -0.1844(2) 0.12114(14) 0.0236 Uani
C8 C 0.59119(13) 0.2973(3) 0.10487(17) 0.0146 Uani
C9 C 0.74880(14) 0.4419(3) 0.12267(15) 0.0129 Uani
C10 C 0.37077(13) -0.1929(3) 0.37525(16) 0.0141 Uani
H2 H 0.4044 -0.2033 0.3477 0.0170 Uiso
C11 C 0.32294(14) -0.1142(3) 0.35451(17) 0.0162 Uani
O15 O 0.23740(11) 0.2922(2) 0.21855(14) 0.0227 Uani
O16 O 0.48400(11) 0.3295(2) 0.12033(13) 0.0212 Uani
C12 C 0.27264(15) -0.0989(3) 0.39622(18) 0.0186 Uani
H3 H 0.2419 -0.0429 0.3837 0.0220 Uiso
C13 C 0.26827(15) -0.1676(3) 0.45671(18) 0.0189 Uani
N2 N 0.17774(12) -0.2523(3) 0.50773(15) 0.0200 Uani
C14 C 0.64751(13) 0.2410(3) 0.00560(15) 0.0134 Uani
C15 C 0.43271(14) 0.1732(3) 0.22035(16) 0.0158 Uani
C16 C 0.48674(14) 0.2438(3) 0.25377(16) 0.0175 Uani
H4 H 0.4741 0.3270 0.2668 0.0210 Uiso
C17 C 0.21383(14) -0.1542(4) 0.50184(18) 0.0201 Uani
O17 O 0.20399(12) -0.0571(3) 0.53253(16) 0.0304 Uani
C18 C 0.69869(13) 0.3075(3) 0.03130(16) 0.0134 Uani
H5 H 0.7348 0.3087 0.0072 0.0160 Uiso
C19 C 0.59438(13) 0.2365(3) 0.04282(17) 0.0153 Uani
H6 H 0.5606 0.1921 0.0258 0.0180 Uiso
C20 C 0.12607(15) -0.2491(3) 0.55368(18) 0.0204 Uani
H7 H 0.1406 -0.2354 0.6014 0.0250 Uiso
C21 C 0.31536(15) -0.2463(3) 0.47709(17) 0.0193 Uani
H8 H 0.3123 -0.2929 0.5169 0.0230 Uiso
C22 C 0.51178(15) 0.1722(4) 0.31712(17) 0.0224 Uani
H9 H 0.5273 0.2282 0.3526 0.0270 Uiso
H10 H 0.4800 0.1210 0.3360 0.0270 Uiso
C23 C 0.59321(14) 0.1799(4) 0.23882(19) 0.0225 Uani
H11 H 0.6225 0.2346 0.2620 0.0270 Uiso
H12 H 0.6138 0.1345 0.2034 0.0270 Uiso
C24 C 0.36787(14) -0.2557(3) 0.43749(17) 0.0164 Uani
C25 C 0.17775(17) -0.3636(4) 0.4636(2) 0.0283 Uani
H13 H 0.2096 -0.4210 0.4788 0.0340 Uiso
H14 H 0.1837 -0.3422 0.4158 0.0340 Uiso
C26 C 0.0388(4) 0.2070(6) 0.2742(3) 0.0615 Uani
H15 H 0.0165 0.2451 0.2357 0.0740 Uiso
H16 H 0.0275 0.2480 0.3162 0.0740 Uiso
C27 C 0.11373(17) -0.4177(4) 0.4730(2) 0.0289 Uani
H17 H 0.0844 -0.3845 0.4392 0.0350 Uiso
H18 H 0.1143 -0.5067 0.4689 0.0350 Uiso
C28 C 0.09771(17) -0.3788(4) 0.5453(2) 0.0265 Uani
H19 H 0.1153 -0.4352 0.5793 0.0320 Uiso
H20 H 0.0535 -0.3761 0.5499 0.0320 Uiso
C29 C 0.56376(16) 0.0931(4) 0.28963(18) 0.0240 Uani
H21 H 0.5928 0.0692 0.3263 0.0290 Uiso
H22 H 0.5478 0.0197 0.2668 0.0290 Uiso
C30 C 0.0235(2) 0.0724(4) 0.2777(2) 0.0328 Uani
H23 H -0.0204 0.0628 0.2831 0.0390 Uiso
H24 H 0.0340 0.0328 0.2350 0.0390 Uiso
C31 C 0.12054(19) 0.0318(6) 0.3292(2) 0.0474 Uani
H25 H 0.1347 -0.0126 0.2894 0.0570 Uiso
H26 H 0.1416 -0.0019 0.3698 0.0570 Uiso
O18 O 0.1047(3) 0.2177(5) 0.2654(2) 0.0793 Uani
C32 C 0.1366(3) 0.1637(9) 0.3226(3) 0.0818 Uani
H27 H 0.1263 0.2069 0.3643 0.0980 Uiso
H28 H 0.1805 0.1717 0.3170 0.0980 Uiso
Cu1A Cu 0.698239(18) 0.14524(4) -0.19603(2) 0.0113 Uani
Cu1B Cu 0.801761(18) 0.64524(4) 0.19603(2) 0.0113 Uani
Cu2A Cu -0.019413(18) 0.00857(4) 0.56228(2) 0.0123 Uani
Cu2B Cu 0.519413(18) -0.49143(4) 0.43772(2) 0.0123 Uani
Cu2C Cu 0.480587(18) -0.49143(4) 0.56228(2) 0.0123 Uani
Cu3A Cu 0.622485(19) -0.02460(4) -0.15022(2) 0.0113 Uani
Cu3B Cu 0.877515(19) 0.47540(4) 0.15022(2) 0.0113 Uani
O1B O 0.23650(10) 0.0342(2) 0.15941(12) 0.0166 Uani
O2B O -0.03923(10) 0.1413(2) 0.41848(12) 0.0180 Uani
O4A O -0.04839(10) -0.1077(2) 0.41992(12) 0.0178 Uani
O5A O 0.38381(10) 0.0804(2) 0.06898(12) 0.0149 Uani
O7C O 0.08092(10) 0.1235(2) 0.47748(12) 0.0168 Uani
O10A O 0.31090(10) 0.2122(2) 0.10366(12) 0.0165 Uani
O12B O 0.30152(10) -0.0955(2) 0.10890(12) 0.0165 Uani
O19 O 0.45334(13) -0.1936(3) -0.0906(2) 0.0421 Uani
O20 O 0.32513(14) -0.1739(3) -0.08427(18) 0.0388 Uani
C33 C 0.4170(3) -0.3017(5) -0.0851(3) 0.0453 Uani
H29 H 0.4401 -0.3641 -0.0595 0.0540 Uiso
H30 H 0.4072 -0.3340 -0.1308 0.0540 Uiso
C34 C 0.4212(2) -0.0937(4) -0.1203(3) 0.0379 Uani
H31 H 0.4112 -0.1116 -0.1683 0.0460 Uiso
H32 H 0.4471 -0.0210 -0.1184 0.0460 Uiso
C35 C 0.36313(19) -0.0683(4) -0.0835(3) 0.0372 Uani
H33 H 0.3732 -0.0447 -0.0363 0.0450 Uiso
H34 H 0.3413 -0.0004 -0.1058 0.0450 Uiso
C36 C 0.3584(2) -0.2736(5) -0.0491(3) 0.0423 Uani
H35 H 0.3327 -0.3467 -0.0486 0.0510 Uiso
H36 H 0.3680 -0.2501 -0.0018 0.0510 Uiso
O21 O 0.39090(15) -0.4087(3) 0.1771(2) 0.0449 Uani
C37 C 0.3576(3) -0.4204(5) 0.2402(3) 0.0501 Uani
H37 H 0.3748 -0.3647 0.2749 0.0600 Uiso
H38 H 0.3613 -0.5039 0.2577 0.0600 Uiso
C38 C 0.2896(3) -0.3891(5) 0.2249(3) 0.0512 Uani
H39 H 0.2669 -0.3974 0.2666 0.0620 Uiso
H40 H 0.2861 -0.3043 0.2095 0.0620 Uiso
O22 O 0.26417(15) -0.4676(3) 0.1738(2) 0.0457 Uani
C39 C 0.3651(2) -0.4881(5) 0.1246(3) 0.0394 Uani
H41 H 0.3695 -0.5733 0.1389 0.0470 Uiso
H42 H 0.3869 -0.4772 0.0824 0.0470 Uiso
C40 C 0.2973(2) -0.4577(5) 0.1119(3) 0.0439 Uani
H43 H 0.2934 -0.3746 0.0940 0.0530 Uiso
H44 H 0.2797 -0.5137 0.0777 0.0530 Uiso
O23 O 0.5000 0.4786(4) 0.0000 0.0319 Uani
O24 O 0.2897(4) -0.0544(8) 0.6558(4) 0.0535 Uani
loop_
_atom_site_aniso_label
_atom_site_aniso_U_11
_atom_site_aniso_U_22
_atom_site_aniso_U_33
_atom_site_aniso_U_23
_atom_site_aniso_U_13
_atom_site_aniso_U_12
Cu1 0.0092(2) 0.0123(2) 0.01244(19) 0.00049(16) 0.00111(14) -0.00042(15)
Cu2 0.00866(19) 0.0164(2) 0.0120(2) -0.00037(16) 0.00087(14) 0.00060(15)
Cu3 0.00905(19) 0.0124(2) 0.0124(2) 0.00081(15) 0.00057(14) -0.00086(15)
O1 0.0129(9) 0.0169(12) 0.0200(11) -0.0033(9) 0.0011(8) 0.0000(8)
O2 0.0115(9) 0.0242(12) 0.0185(10) 0.0057(10) 0.0026(8) 0.0050(9)
O3 0.0122(10) 0.0198(12) 0.0200(11) -0.0049(9) 0.0032(8) -0.0025(8)
O4 0.0128(10) 0.0235(12) 0.0173(11) 0.0034(9) 0.0039(8) 0.0037(9)
O5 0.0129(9) 0.0157(11) 0.0163(10) -0.0045(8) 0.0025(7) -0.0023(8)
O6 0.0125(9) 0.0203(12) 0.0187(11) -0.0019(9) 0.0005(8) -0.0017(8)
O7 0.0143(10) 0.0210(12) 0.0150(10) 0.0018(9) 0.0004(8) 0.0039(8)
O8 0.0155(10) 0.0194(11) 0.0190(11) 0.0014(9) 0.0031(8) 0.0028(9)
O9 0.0187(10) 0.0189(11) 0.0145(10) 0.0022(9) 0.0016(8) 0.0040(9)
C1 0.0116(13) 0.0207(16) 0.0115(13) 0.0026(11) -0.0021(10) -0.0021(12)
O10 0.0165(10) 0.0194(12) 0.0140(10) -0.0034(9) 0.0054(8) -0.0027(9)
O11 0.0176(11) 0.0199(12) 0.0156(11) 0.0017(9) 0.0023(8) 0.0019(9)
O12 0.0112(10) 0.0192(12) 0.0190(11) -0.0015(9) -0.0005(8) -0.0026(8)
C2 0.0132(13) 0.0183(15) 0.0135(14) -0.0066(11) 0.0051(11) -0.0032(11)
C3 0.0105(12) 0.0179(15) 0.0127(13) -0.0013(11) -0.0004(10) 0.0016(11)
C4 0.0106(12) 0.0154(14) 0.0135(13) 0.0010(11) 0.0013(10) 0.0000(11)
C5 0.0112(13) 0.0188(15) 0.0194(15) -0.0036(13) 0.0038(11) -0.0049(11)
C6 0.0131(13) 0.0149(14) 0.0151(13) 0.0012(11) -0.0007(10) -0.0006(11)
O13 0.0194(11) 0.0364(14) 0.0148(11) 0.0000(10) 0.0020(8) 0.0012(10)
N1 0.0097(11) 0.0202(13) 0.0173(13) -0.0041(11) 0.0042(10) -0.0024(10)
C7 0.0114(13) 0.0204(16) 0.0202(15) 0.0028(13) 0.0025(11) 0.0031(11)
O14 0.0175(11) 0.0204(12) 0.0336(14) -0.0035(10) 0.0087(9) 0.0023(9)
C8 0.0085(12) 0.0189(15) 0.0168(15) -0.0009(12) 0.0043(11) -0.0036(11)
C9 0.0108(13) 0.0159(15) 0.0121(13) 0.0023(11) 0.0018(10) -0.0027(10)
C10 0.0109(12) 0.0166(14) 0.0147(14) -0.0004(11) 0.0009(10) -0.0003(11)
C11 0.0142(13) 0.0167(15) 0.0178(15) 0.0005(12) 0.0003(11) -0.0020(12)
O15 0.0176(11) 0.0189(12) 0.0320(13) 0.0025(10) 0.0068(9) 0.0059(9)
O16 0.0136(10) 0.0282(13) 0.0218(12) -0.0001(10) 0.0019(8) 0.0015(9)
C12 0.0140(14) 0.0210(17) 0.0210(16) 0.0031(13) 0.0027(12) 0.0012(11)
C13 0.0143(14) 0.0239(17) 0.0186(15) -0.0001(13) 0.0029(11) 0.0033(12)
N2 0.0136(12) 0.0260(15) 0.0208(14) 0.0014(12) 0.0054(10) 0.0044(11)
C14 0.0137(13) 0.0159(14) 0.0107(13) -0.0016(11) 0.0015(10) -0.0018(11)
C15 0.0131(13) 0.0211(16) 0.0135(13) 0.0032(12) 0.0035(10) -0.0041(12)
C16 0.0123(13) 0.0255(17) 0.0148(14) -0.0054(13) 0.0038(11) -0.0045(12)
C17 0.0131(14) 0.0278(18) 0.0197(15) 0.0042(14) 0.0031(11) 0.0038(12)
O17 0.0214(12) 0.0313(15) 0.0393(16) -0.0092(12) 0.0105(11) -0.0009(10)
C18 0.0087(12) 0.0159(14) 0.0158(14) -0.0010(11) 0.0017(10) -0.0017(11)
C19 0.0106(12) 0.0183(15) 0.0169(14) -0.0015(12) 0.0011(11) -0.0022(11)
C20 0.0164(14) 0.0257(17) 0.0196(15) 0.0055(13) 0.0070(12) 0.0052(13)
C21 0.0146(14) 0.0258(17) 0.0177(15) 0.0049(13) 0.0034(12) 0.0010(12)
C22 0.0221(15) 0.0323(19) 0.0131(14) -0.0016(13) 0.0029(11) -0.0020(14)
C23 0.0129(14) 0.0284(18) 0.0262(16) -0.0026(14) 0.0002(12) 0.0003(13)
C24 0.0126(13) 0.0200(15) 0.0167(14) -0.0001(12) 0.0008(11) 0.0025(12)
C25 0.0241(17) 0.0279(19) 0.0336(19) -0.0039(16) 0.0098(14) 0.0031(14)
C26 0.112(5) 0.043(3) 0.029(2) 0.012(2) -0.005(3) -0.017(3)
C27 0.0284(18) 0.027(2) 0.0320(19) 0.0011(15) 0.0115(14) 0.0024(15)
C28 0.0239(16) 0.0266(19) 0.0296(18) 0.0115(15) 0.0094(13) 0.0065(14)
C29 0.0237(16) 0.0308(18) 0.0172(15) -0.0015(14) -0.0021(12) 0.0026(14)
C30 0.040(2) 0.036(2) 0.0221(18) 0.0050(16) -0.0028(15) -0.0005(17)
C31 0.0237(19) 0.095(4) 0.024(2) 0.002(2) 0.0088(15) 0.002(2)
O18 0.124(4) 0.080(3) 0.035(2) 0.005(2) 0.016(2) -0.065(3)
C32 0.071(4) 0.145(7) 0.030(2) -0.003(3) 0.012(2) -0.073(5)
Cu1A 0.0092 0.0123 0.01244 -0.00049 0.00111 0.00042
Cu1B 0.0092 0.0123 0.01244 0.00049 0.00111 -0.00042
Cu2A 0.00866 0.0164 0.012 0.00037 0.00087 -0.0006
Cu2B 0.00866 0.0164 0.012 -0.00037 0.00087 0.0006
Cu2C 0.00866 0.0164 0.012 0.00037 0.00087 -0.0006
Cu3A 0.00905 0.0124 0.0124 -0.00081 0.00057 0.00086
Cu3B 0.00905 0.0124 0.0124 0.00081 0.00057 -0.00086
O1B 0.0129 0.0169 0.02 -0.0033 0.0011 0
O2B 0.0115 0.0242 0.0185 0.0057 0.0026 0.005
O4A 0.0128 0.0235 0.0173 -0.0034 0.0039 -0.0037
O5A 0.0129 0.0157 0.0163 0.0045 0.0025 0.0023
O7C 0.0143 0.021 0.015 -0.0018 0.0004 -0.0039
O10A 0.0165 0.0194 0.014 0.0034 0.0054 0.0027
O12B 0.0112 0.0192 0.019 -0.0015 -0.0005 -0.0026
O19 0.0191(12) 0.0353(17) 0.073(2) 0.0119(16) 0.0161(14) 0.0020(12)
O20 0.0281(14) 0.0448(19) 0.0435(18) -0.0001(15) 0.0004(12) -0.0031(13)
C33 0.056(3) 0.034(2) 0.047(3) 0.004(2) 0.016(2) 0.001(2)
C34 0.036(2) 0.034(2) 0.044(3) 0.0041(19) 0.0063(19) -0.0036(18)
C35 0.0274(19) 0.034(2) 0.050(3) -0.008(2) 0.0001(18) 0.0015(17)
C36 0.032(2) 0.044(3) 0.051(3) 0.011(2) 0.0016(19) -0.0137(19)
O21 0.0387(17) 0.0301(16) 0.066(2) -0.0061(16) 0.0032(15) -0.0027(13)
C37 0.055(3) 0.030(2) 0.066(4) -0.015(2) 0.013(3) -0.007(2)
C38 0.059(3) 0.031(2) 0.065(3) -0.013(2) 0.021(3) -0.003(2)
O22 0.0369(16) 0.0385(19) 0.062(2) -0.0012(16) 0.0069(15) -0.0045(14)
C39 0.038(2) 0.031(2) 0.049(3) 0.000(2) -0.0015(18) -0.0005(18)
C40 0.034(2) 0.046(3) 0.052(3) 0.002(2) 0.0072(19) 0.0022(19)
O23 0.038(2) 0.0246(19) 0.0327(19) 0.000 -0.0039(15) 0.000
O24 0.058(4) 0.062(5) 0.040(4) 0.006(3) -0.006(3) -0.005(4)
loop_
_geom_bond_atom_site_label_1
_geom_bond_atom_site_label_2
_geom_bond_site_symmetry_1
_geom_bond_site_symmetry_2
Cu1 Cu3 1_555 1_555
Cu2 O8 1_555 1_555
Cu3 O6 1_555 1_555
O1 C9 1_555 1_555
O2 C6 1_555 1_555
O3 Cu1 1_555 1_555
O4 C7 1_555 1_555
O5 C3 1_555 1_555
O6 C15 1_555 1_555
O7 C6 1_555 1_555
O8 C7 1_555 1_555
O9 Cu1 1_555 1_555
C1 O9 1_555 1_555
O10 C3 1_555 1_555
O11 Cu3 1_555 1_555
O12 C9 1_555 1_555
C2 H1 1_555 1_555
C3 C14 1_555 1_555
C4 C2 1_555 1_555
C5 N1 1_555 1_555
C6 C24 1_555 1_555
O13 Cu2 1_555 1_555
N1 C16 1_555 1_555
C7 C20 1_555 1_555
O14 Cu3 1_555 1_555
C8 C2 1_555 1_555
C9 C4 1_555 1_555
C10 H2 1_555 1_555
C11 C1 1_555 1_555
O15 Cu1 1_555 1_555
O16 C5 1_555 1_555
C12 C11 1_555 1_555
H3 C12 1_555 1_555
C13 C12 1_555 1_555
N2 C17 1_555 1_555
C14 C18 1_555 1_555
C15 O3 1_555 1_555
C16 C15 1_555 1_555
H4 C16 1_555 1_555
C17 C13 1_555 1_555
O17 C17 1_555 1_555
C18 C4 1_555 1_555
H5 C18 1_555 1_555
C19 C8 1_555 1_555
H6 C19 1_555 1_555
C20 N2 1_555 1_555
H7 C20 1_555 1_555
C21 C13 1_555 1_555
H8 C21 1_555 1_555
C22 C16 1_555 1_555
H9 C22 1_555 1_555
H10 C22 1_555 1_555
C23 N1 1_555 1_555
H11 C23 1_555 1_555
H12 C23 1_555 1_555
C24 C10 1_555 1_555
C25 N2 1_555 1_555
H13 C25 1_555 1_555
H14 C25 1_555 1_555
C26 H15 1_555 1_555
H16 C26 1_555 1_555
C27 C25 1_555 1_555
H17 C27 1_555 1_555
H18 C27 1_555 1_555
C28 C20 1_555 1_555
H19 C28 1_555 1_555
H20 C28 1_555 1_555
C29 C22 1_555 1_555
H21 C29 1_555 1_555
H22 C29 1_555 1_555
C30 O13 1_555 1_555
H23 C30 1_555 1_555
H24 C30 1_555 1_555
C31 O13 1_555 1_555
H25 C31 1_555 1_555
H26 C31 1_555 1_555
O18 C26 1_555 1_555
C32 C31 1_555 1_555
H27 C32 1_555 1_555
H28 C32 1_555 1_555
O19 C33 1_555 1_555
O20 C35 1_555 1_555
C33 H29 1_555 1_555
H30 C33 1_555 1_555
C34 O19 1_555 1_555
H31 C34 1_555 1_555
H32 C34 1_555 1_555
C35 C34 1_555 1_555
H33 C35 1_555 1_555
H34 C35 1_555 1_555
C36 O20 1_555 1_555
H35 C36 1_555 1_555
H36 C36 1_555 1_555
O21 C37 1_555 1_555
C37 H37 1_555 1_555
H38 C37 1_555 1_555
C38 C37 1_555 1_555
H39 C38 1_555 1_555
H40 C38 1_555 1_555
O22 C38 1_555 1_555
C39 O21 1_555 1_555
H41 C39 1_555 1_555
H42 C39 1_555 1_555
C40 O22 1_555 1_555
H43 C40 1_555 1_555
H44 C40 1_555 1_555
Cu1A O10 1_555 1_555
Cu1B O1 1_555 1_555
Cu2A Cu2 1_555 1_555
Cu2B O2 1_555 1_555
Cu2C O7 1_555 1_555
Cu3A O5 1_555 1_555
Cu3B O12 1_555 1_555
O1B Cu1 1_555 1_555
O2B Cu2 1_555 1_555
O4A Cu2 1_555 1_555
O5A Cu3 1_555 1_555
O7C Cu2 1_555 1_555
O10A Cu1 1_555 1_555
O12B Cu3 1_555 1_555
O4 Cu2A 1_555 1_555
C1 O11 1_555 1_555
C5 C8 1_555 1_555
C10 C11 1_555 1_555
C14 C19 1_555 1_555
C21 C24 1_555 1_555
C23 C29 1_555 1_555
C26 C30 1_555 1_555
C27 C28 1_555 1_555
O18 C32 1_555 1_555
C33 C36 1_555 1_555
C39 C40 1_555 1_555
Cu1A Cu3A 1_555 1_555
Cu1B Cu3B 1_555 1_555
Cu2B Cu2C 1_555 1_555

#END
