
#######################################################################
#
#                 Cambridge Crystallographic Data Centre
#                                CCDC 
#
#######################################################################
#
# If this CIF has been generated from an entry in the Cambridge 
# Structural Database, then it will include bibliographic, chemical, 
# crystal, experimental, refinement or atomic coordinate data resulting 
# from the CCDC's data processing and validation procedures.
#
#######################################################################

data_FUZPUN
_chemical_formula_moiety         '(C12 H16 Cl1 N6 Ni1 O7 1+)n'
_symmetry_cell_setting           orthorhombic
_symmetry_space_group_name_H-M   'F d d 2'
_symmetry_Int_Tables_number      43
_space_group_name_Hall           'F 2 -2d'
loop_
_symmetry_equiv_pos_site_id
_symmetry_equiv_pos_as_xyz
1 x,y,z
2 -x,-y,z
3 1/4+x,1/4-y,1/4+z
4 1/4-x,1/4+y,1/4+z
5 x,1/2+y,1/2+z
6 -x,1/2-y,1/2+z
7 1/4+x,3/4-y,3/4+z
8 1/4-x,3/4+y,3/4+z
9 1/2+x,y,1/2+z
10 1/2-x,-y,1/2+z
11 3/4+x,1/4-y,3/4+z
12 3/4-x,1/4+y,3/4+z
13 1/2+x,1/2+y,z
14 1/2-x,1/2-y,z
15 3/4+x,3/4-y,1/4+z
16 3/4-x,3/4+y,1/4+z
_cell_length_a                   21.969(2)
_cell_length_b                   22.463(2)
_cell_length_c                   8.7866(8)
_cell_angle_alpha                90
_cell_angle_beta                 90
_cell_angle_gamma                90
_cell_volume                     4336.1
loop_
_atom_site_label
_atom_site_type_symbol
_atom_site_fract_x
_atom_site_fract_y
_atom_site_fract_z
_atom_site_U_iso_or_equiv
_atom_site_thermal_displace_type
Ni1 Ni 0.2500 0.2500 0.62703(10) 0.0260 Uani
C1 C 0.3419(2) 0.1685(2) 0.6760(6) 0.0303 Uani
C2 C 0.3981(2) 0.1349(2) 0.6455(6) 0.0320 Uani
C3 C 0.4184(2) 0.0895(2) 0.7384(7) 0.0313 Uani
H1 H 0.3942 0.0776 0.8197 0.0380 Uiso
C4 C 0.5057(3) 0.0785(3) 0.5966(7) 0.0380 Uani
H2 H 0.5428 0.0595 0.5808 0.0460 Uiso
C5 C 0.4886(3) 0.1223(3) 0.4963(8) 0.0487 Uani
H3 H 0.5131 0.1323 0.4139 0.0580 Uiso
C6 C 0.4343(3) 0.1510(3) 0.5207(7) 0.0447 Uani
H4 H 0.4217 0.1810 0.4549 0.0530 Uiso
N1 N 0.47189(19) 0.06165(18) 0.7160(5) 0.0316 Uani
N2 N 0.2982(2) 0.14380(19) 0.7591(6) 0.0377 Uani
H5 H 0.3009 0.1076 0.7906 0.0450 Uiso
N3 N 0.24705(19) 0.1796(2) 0.7938(6) 0.0357 Uani
H6 H 0.2498 0.1944 0.8887 0.0430 Uiso
H7 H 0.2124 0.1586 0.7857 0.0430 Uiso
O1 O 0.33637(15) 0.21883(15) 0.6220(5) 0.0342 Uani
C1M C 0.1581(2) 0.3315(2) 0.6760(6) 0.0303 Uani
C2M C 0.1019(2) 0.3651(2) 0.6455(6) 0.0320 Uani
C3M C 0.0816(2) 0.4105(2) 0.7384(7) 0.0313 Uani
H1M H 0.1058 0.4224 0.8197 0.0380 Uiso
C4M C -0.0057(3) 0.4215(3) 0.5966(7) 0.0380 Uani
H2M H -0.0428 0.4405 0.5808 0.0460 Uiso
C5M C 0.0114(3) 0.3777(3) 0.4963(8) 0.0487 Uani
H3M H -0.0131 0.3677 0.4139 0.0580 Uiso
C6M C 0.0657(3) 0.3490(3) 0.5207(7) 0.0447 Uani
H4M H 0.0783 0.3190 0.4549 0.0530 Uiso
N1M N 0.02811(19) 0.43835(18) 0.7160(5) 0.0316 Uani
N2M N 0.2018(2) 0.35620(19) 0.7591(6) 0.0377 Uani
H5M H 0.1991 0.3924 0.7906 0.0450 Uiso
N3M N 0.25295(19) 0.3204(2) 0.7938(6) 0.0357 Uani
H6M H 0.2502 0.3056 0.8887 0.0430 Uiso
H7M H 0.2876 0.3414 0.7857 0.0430 Uiso
O1M O 0.16363(15) 0.28117(15) 0.6220(5) 0.0342 Uani
Ni1B Ni 0.5000 0.0000 0.87703(10) 0.0260 Uani
Ni1C Ni -0.0000 0.5000 0.87703(10) 0.0260 Uani
N1J N 0.22189(19) 0.18835(18) 0.4660(5) 0.0316 Uani
N1K N 0.27811(19) 0.31165(18) 0.4660(5) 0.0316 Uani
Cl1 Cl 0.11703(10) 0.26965(16) 0.0562(2) 0.0857 Uani
O2 O 0.0973(5) 0.2482(5) 0.1967(11) 0.1210 Uani
O3 O 0.1778(4) 0.2668(5) 0.0459(12) 0.1187 Uani
O4 O 0.1175(6) 0.3394(5) 0.088(3) 0.1970 Uani
O5 O 0.0774(5) 0.2830(9) -0.0454(12) 0.1860 Uani
O6 O 0.2868(3) 0.0412(2) 0.9313(6) 0.0650 Uani
H8 H 0.3017 0.0499 1.0178 0.0980 Uiso
H9 H 0.2487 0.0358 0.9397 0.0980 Uiso
loop_
_atom_site_aniso_label
_atom_site_aniso_U_11
_atom_site_aniso_U_22
_atom_site_aniso_U_33
_atom_site_aniso_U_23
_atom_site_aniso_U_13
_atom_site_aniso_U_12
Ni1 0.0197(4) 0.0204(4) 0.0380(5) 0.000 0.000 0.0009(3)
C1 0.024(2) 0.026(2) 0.041(3) 0.003(2) -0.003(2) 0.0022(19)
C2 0.029(3) 0.025(2) 0.042(3) 0.003(2) 0.004(2) 0.0018(19)
C3 0.026(3) 0.028(2) 0.040(3) 0.004(2) 0.003(2) 0.0057(19)
C4 0.032(3) 0.036(3) 0.046(4) 0.006(3) 0.012(2) 0.006(2)
C5 0.047(3) 0.051(4) 0.048(3) 0.014(3) 0.017(3) 0.016(3)
C6 0.041(3) 0.045(3) 0.048(3) 0.017(3) 0.012(3) 0.011(2)
N1 0.025(2) 0.0237(19) 0.046(3) -0.0010(18) -0.002(2) 0.0022(16)
N2 0.033(2) 0.029(2) 0.051(3) 0.007(2) 0.006(2) 0.0089(18)
N3 0.027(2) 0.032(3) 0.048(3) 0.008(2) 0.0001(19) 0.0053(16)
O1 0.0198(16) 0.0288(17) 0.054(2) 0.0061(16) 0.0017(16) 0.0054(13)
C1M 0.024 0.026 0.041 -0.003 0.003 0.0022
C2M 0.029 0.025 0.042 -0.003 -0.004 0.0018
C3M 0.026 0.028 0.04 -0.004 -0.003 0.0057
C4M 0.032 0.036 0.046 -0.006 -0.012 0.006
C5M 0.047 0.051 0.048 -0.014 -0.017 0.016
C6M 0.041 0.045 0.048 -0.017 -0.012 0.011
N1M 0.025 0.0237 0.046 0.001 0.002 0.0022
N2M 0.033 0.029 0.051 -0.007 -0.006 0.0089
N3M 0.027 0.032 0.048 -0.008 -0.0001 0.0053
O1M 0.0198 0.0288 0.054 -0.0061 -0.0017 0.0054
Ni1B 0.0197 0.0204 0.038 0 0 -0.0009
Ni1C 0.0197 0.0204 0.038 0 0 -0.0009
N1J 0.025 0.0237 0.046 0.001 -0.002 -0.0022
N1K 0.025 0.0237 0.046 -0.001 0.002 -0.0022
Cl1 0.0505(12) 0.150(2) 0.0565(12) 0.0250(14) -0.0035(9) -0.0202(13)
O2 0.114(8) 0.164(9) 0.085(5) 0.050(5) 0.041(5) 0.032(5)
O3 0.061(5) 0.168(8) 0.127(7) 0.037(7) 0.023(4) 0.002(5)
O4 0.191(13) 0.110(7) 0.29(2) 0.017(11) 0.051(11) 0.029(9)
O5 0.111(8) 0.36(2) 0.087(6) 0.045(10) -0.010(6) 0.019(10)
O6 0.064(3) 0.061(3) 0.070(4) 0.025(2) -0.003(3) -0.003(2)
loop_
_geom_bond_atom_site_label_1
_geom_bond_atom_site_label_2
_geom_bond_site_symmetry_1
_geom_bond_site_symmetry_2
Ni1 N3 1_555 1_555
C1 C2 1_555 1_555
C2 C3 1_555 1_555
C3 H1 1_555 1_555
C4 H2 1_555 1_555
C5 C4 1_555 1_555
H3 C5 1_555 1_555
C6 C2 1_555 1_555
H4 C6 1_555 1_555
N1 C3 1_555 1_555
N2 C1 1_555 1_555
H5 N2 1_555 1_555
N3 N2 1_555 1_555
H6 N3 1_555 1_555
H7 N3 1_555 1_555
O1 Ni1 1_555 1_555
Cl1 O2 1_555 1_555
O3 Cl1 1_555 1_555
O4 Cl1 1_555 1_555
O5 Cl1 1_555 1_555
O6 H8 1_555 1_555
H9 O6 1_555 1_555
C1M C2M 1_555 1_555
C2M C3M 1_555 1_555
C3M H1M 1_555 1_555
C4M H2M 1_555 1_555
C5M C4M 1_555 1_555
H3M C5M 1_555 1_555
C6M C2M 1_555 1_555
H4M C6M 1_555 1_555
N1M C3M 1_555 1_555
N2M C1M 1_555 1_555
H5M N2M 1_555 1_555
N3M Ni1 1_555 1_555
H6M N3M 1_555 1_555
H7M N3M 1_555 1_555
O1M Ni1 1_555 1_555
Ni1B N1 1_555 1_555
Ni1C N1M 1_555 1_555
N1J Ni1 1_555 1_555
N1K Ni1 1_555 1_555
C1 O1 1_555 1_555
C4 N1 1_555 1_555
C5 C6 1_555 1_555
C1M O1M 1_555 1_555
C4M N1M 1_555 1_555
C5M C6M 1_555 1_555
N2M N3M 1_555 1_555

#END
