
#######################################################################
#
#                 Cambridge Crystallographic Data Centre
#                                CCDC 
#
#######################################################################
#
# If this CIF has been generated from an entry in the Cambridge 
# Structural Database, then it will include bibliographic, chemical, 
# crystal, experimental, refinement or atomic coordinate data resulting 
# from the CCDC's data processing and validation procedures.
#
#######################################################################

data_LACQIS
_chemical_formula_moiety         '(C10 H17 Cl1 N4 O10 Zn1)n'
_symmetry_cell_setting           tetragonal
_symmetry_space_group_name_H-M   'P 42/n'
_symmetry_Int_Tables_number      86
_space_group_name_Hall           '-P 4bc'
loop_
_symmetry_equiv_pos_site_id
_symmetry_equiv_pos_as_xyz
1 x,y,z
2 -y,1/2+x,1/2+z
3 1/2-x,1/2-y,z
4 1/2+y,-x,1/2+z
5 -x,-y,-z
6 y,1/2-x,1/2-z
7 1/2+x,1/2+y,-z
8 1/2-y,x,1/2-z
_cell_length_a                   18.1111(7)
_cell_length_b                   18.1111(7)
_cell_length_c                   11.2507(9)
_cell_angle_alpha                90
_cell_angle_beta                 90
_cell_angle_gamma                90
_cell_volume                     3690.36
loop_
_atom_site_label
_atom_site_type_symbol
_atom_site_fract_x
_atom_site_fract_y
_atom_site_fract_z
_atom_site_U_iso_or_equiv
_atom_site_thermal_displace_type
Zn1 Zn 0.21145(3) 0.42349(3) 0.16977(4) 0.0303 Uani
C1 C 0.2858(2) 0.3467(2) 0.3834(4) 0.0287 Uani
C2 C 0.2202(2) 0.3638(2) 0.4610(4) 0.0323 Uani
H1 H 0.1871 0.3217 0.4595 0.0570 Uiso
H2 H 0.2376 0.3693 0.5421 0.0300 Uiso
C3 C 0.1768(2) 0.4312(2) 0.4295(4) 0.0300 Uani
C4 C 0.1082(2) 0.5276(3) 0.4458(4) 0.0360 Uani
C5 C 0.0634(2) 0.5868(2) 0.4978(4) 0.0373 Uani
C6 C 0.0439(3) 0.5874(3) 0.6169(5) 0.0540 Uani
H3 H 0.0579 0.5488 0.6665 0.0650 Uiso
C7 C 0.0033(3) 0.6461(3) 0.6614(5) 0.0527 Uani
H4 H -0.0087 0.6464 0.7418 0.0660 Uiso
C8 C -0.0022(3) 0.7000(3) 0.4794(5) 0.0533 Uani
H5 H -0.0187 0.7382 0.4309 0.0560 Uiso
C9 C 0.0385(3) 0.6442(3) 0.4279(4) 0.0567 Uani
H6 H 0.0489 0.6452 0.3470 0.0680 Uiso
N1 N 0.1677(2) 0.4599(2) 0.3236(3) 0.0340 Uani
N2 N 0.1240(2) 0.5222(2) 0.3332(3) 0.0373 Uani
N3 N 0.1399(2) 0.4722(2) 0.5066(3) 0.0347 Uani
H7 H 0.1372 0.4650 0.5820 0.0360 Uiso
N4 N -0.0187(2) 0.7023(2) 0.5942(3) 0.0360 Uani
O1 O 0.28962(16) 0.36657(16) 0.2781(3) 0.0337 Uani
O2 O 0.33578(16) 0.30831(17) 0.4324(3) 0.0362 Uani
O3 O 0.1297(2) 0.4801(2) 0.0707(3) 0.0613 Uani
H8 H 0.1249 0.4596 0.0033 0.0730 Uiso
H9 H 0.1433 0.5245 0.0597 0.0730 Uiso
Zn1C Zn -0.07651(3) 0.78855(3) 0.66977(4) 0.0303 Uani
Zn1E Zn 0.42349(3) 0.28855(3) 0.33023(4) 0.0303 Uani
N4A N 0.2977(2) 0.4813(2) 0.0942(3) 0.0360 Uani
O2G O 0.19169(17) 0.33578(16) 0.0676(3) 0.0362 Uani
C10 C 0.171(3) 0.6282(10) 0.837(5) 0.4800 Uani
H10 H 0.1902 0.6269 0.9169 0.7230 Uiso
H11 H 0.1817 0.5821 0.7985 0.7230 Uiso
H12 H 0.1191 0.6362 0.8391 0.7230 Uiso
O4 O 0.2068(17) 0.688(3) 0.772(3) 0.4800 Uani
H13 H 0.2330 0.7156 0.8046 0.7240 Uiso
Cl1 Cl 0.01582(10) 0.64694(10) 0.06802(15) 0.0751 Uani
O5 O 0.0905(3) 0.6382(4) 0.0899(7) 0.1297 Uani
O6 O -0.0176(5) 0.6973(4) 0.1488(5) 0.1460 Uani
O7 O -0.0147(4) 0.5765(4) 0.0978(8) 0.1497 Uani
O8 O -0.0017(4) 0.6672(5) -0.0436(5) 0.1690 Uani
O9 O 0.1405(4) 0.4432(5) 0.7491(4) 0.1530 Uani
H14 H 0.1197 0.4469 0.8166 0.2300 Uiso
H15 H 0.1846 0.4591 0.7539 0.2300 Uiso
O10 O 0.1611(7) 0.2308(7) 0.6875(7) 0.2230 Uani
H16 H 0.1404 0.2680 0.7193 0.3350 Uiso
H17 H 0.1591 0.2349 0.6123 0.3350 Uiso
loop_
_atom_site_aniso_label
_atom_site_aniso_U_11
_atom_site_aniso_U_22
_atom_site_aniso_U_33
_atom_site_aniso_U_23
_atom_site_aniso_U_13
_atom_site_aniso_U_12
Zn1 0.0319(3) 0.0288(3) 0.0301(3) -0.0012(2) 0.0058(2) -0.0018(2)
C1 0.030(2) 0.025(2) 0.031(2) -0.0010(18) 0.0007(19) 0.0002(17)
C2 0.034(2) 0.028(2) 0.035(2) 0.0024(19) 0.0050(19) 0.0046(18)
C3 0.029(2) 0.030(2) 0.031(2) -0.0032(18) 0.0019(18) 0.0017(18)
C4 0.037(3) 0.036(2) 0.035(2) -0.003(2) 0.004(2) 0.0044(19)
C5 0.036(2) 0.038(3) 0.038(3) -0.005(2) 0.004(2) 0.009(2)
C6 0.070(4) 0.056(3) 0.036(3) 0.003(2) 0.007(3) 0.032(3)
C7 0.064(4) 0.059(3) 0.035(3) 0.001(2) 0.009(2) 0.027(3)
C8 0.070(4) 0.051(3) 0.039(3) 0.001(2) 0.006(3) 0.032(3)
C9 0.080(4) 0.056(3) 0.034(3) -0.004(2) 0.009(3) 0.029(3)
N1 0.039(2) 0.0311(19) 0.032(2) -0.0020(16) 0.0022(16) 0.0044(16)
N2 0.041(2) 0.036(2) 0.035(2) -0.0025(16) 0.0049(17) 0.0125(18)
N3 0.037(2) 0.039(2) 0.028(2) 0.0003(17) 0.0043(16) 0.0083(17)
N4 0.035(2) 0.040(2) 0.033(2) -0.0036(17) 0.0032(16) 0.0091(16)
O1 0.0308(16) 0.0365(17) 0.0339(17) 0.0037(14) 0.0049(13) 0.0042(13)
O2 0.0333(17) 0.0386(17) 0.0368(17) 0.0031(14) 0.0036(13) 0.0055(14)
O3 0.066(3) 0.062(2) 0.056(2) 0.0019(19) -0.0115(19) 0.018(2)
Zn1C 0.0288 0.0319 0.0301 -0.0058 -0.0012 0.0018
Zn1E 0.0288 0.0319 0.0301 0.0058 0.0012 0.0018
N4A 0.04 0.035 0.033 0.0032 0.0036 -0.0091
O2G 0.0386 0.0333 0.0368 -0.0036 0.0031 -0.0055
C10 0.17(2) 0.98(10) 0.29(3) 0.08(4) 0.09(2) 0.02(4)
O4 0.17(2) 0.98(10) 0.29(3) 0.08(4) 0.088(19) 0.02(4)
Cl1 0.0787(11) 0.0727(11) 0.0738(11) 0.0022(8) -0.0297(9) 0.0206(9)
O5 0.080(4) 0.120(5) 0.189(7) 0.021(5) -0.057(4) 0.001(3)
O6 0.225(8) 0.128(5) 0.085(4) -0.021(4) -0.021(4) 0.089(6)
O7 0.130(6) 0.110(5) 0.209(8) 0.005(5) 0.027(6) -0.001(4)
O8 0.188(7) 0.265(9) 0.054(3) -0.006(4) -0.024(4) 0.133(7)
O9 0.129(5) 0.273(9) 0.057(3) 0.045(4) 0.026(3) 0.054(6)
O10 0.221(11) 0.317(15) 0.131(7) 0.027(8) 0.035(6) -0.013(10)
loop_
_geom_bond_atom_site_label_1
_geom_bond_atom_site_label_2
_geom_bond_site_symmetry_1
_geom_bond_site_symmetry_2
Zn1 N1 1_555 1_555
C1 C2 1_555 1_555
C2 H1 1_555 1_555
H2 C2 1_555 1_555
C3 C2 1_555 1_555
C4 C5 1_555 1_555
C5 C6 1_555 1_555
C6 H3 1_555 1_555
C7 C6 1_555 1_555
H4 C7 1_555 1_555
C8 H5 1_555 1_555
C9 C5 1_555 1_555
H6 C9 1_555 1_555
N1 C3 1_555 1_555
N2 C4 1_555 1_555
N3 C3 1_555 1_555
H7 N3 1_555 1_555
N4 C7 1_555 1_555
O1 Zn1 1_555 1_555
O2 C1 1_555 1_555
O3 Zn1 1_555 1_555
H8 O3 1_555 1_555
H9 O3 1_555 1_555
C10 H10 1_555 1_555
H11 C10 1_555 1_555
H12 C10 1_555 1_555
O4 C10 1_555 1_555
H13 O4 1_555 1_555
Cl1 O5 1_555 1_555
O6 Cl1 1_555 1_555
O7 Cl1 1_555 1_555
O8 Cl1 1_555 1_555
O9 H14 1_555 1_555
H15 O9 1_555 1_555
O10 H16 1_555 1_555
H17 O10 1_555 1_555
Zn1C N4 1_555 1_555
Zn1E O2 1_555 1_555
N4A Zn1 1_555 1_555
O2G Zn1 1_555 1_555
C1 O1 1_555 1_555
C4 N3 1_555 1_555
C8 C9 1_555 1_555
C8 N4 1_555 1_555
N1 N2 1_555 1_555

#END
