
#######################################################################
#
#                 Cambridge Crystallographic Data Centre
#                                CCDC 
#
#######################################################################
#
# If this CIF has been generated from an entry in the Cambridge 
# Structural Database, then it will include bibliographic, chemical, 
# crystal, experimental, refinement or atomic coordinate data resulting 
# from the CCDC's data processing and validation procedures.
#
#######################################################################

data_EHAGEB
_chemical_formula_moiety         '(C30 H34 Eu2 O44 U3)n'
_symmetry_cell_setting           triclinic
_symmetry_space_group_name_H-M   'P -1'
_symmetry_Int_Tables_number      2
_space_group_name_Hall           '-P 1'
loop_
_symmetry_equiv_pos_site_id
_symmetry_equiv_pos_as_xyz
1 x,y,z
2 -x,-y,-z
_cell_length_a                   10.6427(6)
_cell_length_b                   11.5008(6)
_cell_length_c                   13.4731(8)
_cell_angle_alpha                69.142(5)
_cell_angle_beta                 78.865(5)
_cell_angle_gamma                63.208(6)
_cell_volume                     1374.54
loop_
_atom_site_label
_atom_site_type_symbol
_atom_site_fract_x
_atom_site_fract_y
_atom_site_fract_z
U1 U 0.62579(4) 0.71128(4) 0.83650(3)
U2 U 1.0000 0.5000 0.5000
Eu1 Eu 0.60329(6) 0.22800(5) 0.75140(5)
O1 O 0.5373(8) 0.6308(7) 0.9424(6)
O2 O 0.7169(9) 0.7899(8) 0.7313(7)
O3 O 1.0698(8) 0.4994(7) 0.6100(6)
O4 O 0.8510(9) 0.5363(7) 0.9132(7)
O5 O 0.7651(8) 0.4937(7) 0.8023(7)
O6 O 0.8211(8) 0.2314(7) 0.7699(6)
O7 O 0.8905(7) 0.3622(6) 0.6259(6)
O8 O 1.4186(8) -0.0827(6) 0.8205(6)
O9 O 1.5026(8) 0.0764(8) 0.7536(7)
O10 O 1.4827(9) 0.1763(8) 0.9185(6)
O11 O 1.3246(7) 0.1980(7) 1.0539(6)
O12 O 0.5032(8) 0.6934(7) 0.7185(6)
O13 O 0.4149(9) 0.7009(7) 0.5784(6)
O14 O 0.7362(8) 0.6340(7) 0.5354(7)
O15 O 0.8636(8) 0.7495(7) 0.4782(6)
O16 O 0.3697(10) 0.3789(9) 0.6773(9)
H1 H 0.3578 0.4553 0.6223
H2 H 0.2961 0.3574 0.7050
O17 O 0.6118(8) 0.4233(7) 0.6056(6)
H3 H 0.5330 0.4867 0.5710
H4 H 0.6935 0.4323 0.5859
O18 O 0.7166(9) 0.1489(7) 0.6049(7)
H5 H 0.6686 0.1779 0.5463
H6 H 0.8078 0.0892 0.6077
O19 O 0.7731(9) 0.0043(8) 0.8383(7)
H7 H 0.7523 -0.0684 0.8565
H8 H 0.8577 -0.0069 0.8528
O20 O 0.5239(11) 0.4124(8) 0.8264(7)
H9 H 0.4387 0.4825 0.8109
H10 H 0.5791 0.4110 0.8701
C1 C 1.0017(11) 0.3423(9) 0.8512(9)
C2 C 1.1137(11) 0.3132(9) 0.9079(9)
H11 H 1.0988 0.3601 0.9558
C3 C 1.2477(10) 0.2152(9) 0.8945(9)
C4 C 1.2675(11) 0.1431(9) 0.8242(8)
C5 C 1.1514(11) 0.1637(9) 0.7752(9)
H12 H 1.1631 0.1082 0.7350
C6 C 1.0194(12) 0.2653(9) 0.7857(9)
C7 C 0.6260(11) 1.0012(9) 0.4496(8)
H13 H 0.7112 1.0013 0.4166
C8 C 0.6153(11) 0.8763(10) 0.5056(8)
C9 C 0.4916(12) 0.8757(9) 0.5562(8)
C10 C 0.8668(11) 0.4629(10) 0.8566(10)
C11 C 1.3624(12) 0.1937(10) 0.9581(9)
C12 C 1.4101(11) 0.0377(10) 0.7977(9)
C13 C 0.9006(11) 0.2904(9) 0.7231(10)
C14 C 0.4708(12) 0.7445(10) 0.6217(9)
C15 C 0.7462(11) 0.7462(10) 0.5077(9)
O12A O 0.4968(8) 1.3066(7) 0.2815(6)
O13A O 0.5851(9) 1.2991(7) 0.4216(6)
O14A O 0.2638(8) 1.3660(7) 0.4646(7)
O15A O 0.1364(8) 1.2505(7) 0.5218(6)
C7A C 0.3740(11) 0.9988(9) 0.5504(8)
H13A H 0.2888 0.9987 0.5834
C8A C 0.3847(11) 1.1237(10) 0.4944(8)
C9A C 0.5084(12) 1.1243(9) 0.4438(8)
C14A C 0.5292(12) 1.2555(10) 0.3783(9)
C15A C 0.2538(11) 1.2538(10) 0.4923(9)
U1A U 0.37421(4) 1.28872(4) 0.16350(3)
Eu1A Eu 0.39671(6) 1.77200(5) 0.24860(5)
O1A O 0.4627(8) 1.3692(7) 0.0576(6)
O2A O 0.2831(9) 1.2101(8) 0.2687(7)
O4A O 0.1490(9) 1.4637(7) 0.0868(7)
O5A O 0.2349(8) 1.5063(7) 0.1977(7)
O6A O 0.1789(8) 1.7686(7) 0.2301(6)
O7A O 0.1095(7) 1.6378(6) 0.3741(6)
O8A O -0.4186(8) 2.0827(6) 0.1795(6)
O9A O -0.5026(8) 1.9236(8) 0.2464(7)
O10A O -0.4827(9) 1.8237(8) 0.0815(6)
O11A O -0.3246(7) 1.8020(7) -0.0539(6)
O16A O 0.6303(10) 1.6211(9) 0.3227(9)
H1A H 0.6422 1.5447 0.3777
H2A H 0.7039 1.6426 0.2950
O17A O 0.3882(8) 1.5767(7) 0.3944(6)
H3A H 0.4670 1.5133 0.4290
H4A H 0.3065 1.5677 0.4141
O18A O 0.2834(9) 1.8511(7) 0.3951(7)
H5A H 0.3314 1.8221 0.4537
H6A H 0.1922 1.9108 0.3923
O19A O 0.2269(9) 1.9957(8) 0.1617(7)
H7A H 0.2477 2.0684 0.1435
H8A H 0.1423 2.0069 0.1472
O20A O 0.4761(11) 1.5876(8) 0.1736(7)
H9A H 0.5613 1.5175 0.1891
H10A H 0.4209 1.5890 0.1299
C1A C -0.0017(11) 1.6577(9) 0.1488(9)
C2A C -0.1137(11) 1.6868(9) 0.0921(9)
H11A H -0.0988 1.6399 0.0442
C3A C -0.2477(10) 1.7848(9) 0.1055(9)
C4A C -0.2675(11) 1.8569(9) 0.1758(8)
C5A C -0.1514(11) 1.8363(9) 0.2248(9)
H12A H -0.1631 1.8918 0.2650
C6A C -0.0194(12) 1.7347(9) 0.2143(9)
C10A C 0.1332(11) 1.5371(10) 0.1434(10)
C11A C -0.3624(12) 1.8063(10) 0.0419(9)
C12A C -0.4101(11) 1.9623(10) 0.2023(9)
C13A C 0.0994(11) 1.7096(9) 0.2769(10)
O3A O 0.9302(8) 0.5006(7) 0.3900(6)
U1_2 U -0.37421(4) 1.71128(4) -0.16350(3)
U1_3 U 1.62579(4) -0.28872(4) 0.83650(3)
U1A_2 U -0.62579(4) 2.28872(4) 0.16350(3)
U1A_3 U 1.37421(4) 0.28872(4) 1.16350(3)
U2_2 U -0.0000 1.5000 0.5000
Eu1_2 Eu 1.60329(6) 0.22800(5) 0.75140(5)
Eu1A_2 Eu -0.60329(6) 1.77200(5) 0.24860(5)
O7A_2 O 1.1095(7) 0.6378(6) 0.3741(6)
O8_2 O 0.4186(8) 0.9173(6) 0.8205(6)
O8A_2 O 0.5814(8) 1.0827(6) 0.1795(6)
O9_2 O 0.5026(8) 0.0764(8) 0.7536(7)
O9A_2 O 0.4974(8) 1.9236(8) 0.2464(7)
O10_2 O 0.4827(9) 0.1763(8) 0.9185(6)
O10A_2 O 0.5173(9) 1.8237(8) 0.0815(6)
O11_2 O 0.3246(7) 1.1980(7) 0.0539(6)
O11A_2 O 0.6754(7) 0.8020(7) 0.9461(6)
O14A_2 O 1.2638(8) 0.3660(7) 0.4646(7)
O15A_2 O 1.1364(8) 0.2505(7) 0.5218(6)
O21 O 0.051(2) 0.107(2) 0.427(2)
O22 O 0.939(2) 0.114(2) 0.201(3)
O23 O 0.815(4) 0.144(3) 0.014(2)
O24 O 0.834(5) 0.357(3) 0.250(5)
loop_
_geom_bond_atom_site_label_1
_geom_bond_atom_site_label_2
_geom_bond_site_symmetry_1
_geom_bond_site_symmetry_2
U1 O1 1_555 1_555
U2 O3 1_555 1_555
Eu1 O6 1_555 1_555
O2 U1 1_555 1_555
O4 U1 1_555 1_555
O5 U1 1_555 1_555
O6 C13 1_555 1_555
O7 U2 1_555 1_555
O8 C12 1_555 1_555
O9 C12 1_555 1_555
O10 C11 1_555 1_555
O11 C11 1_555 1_555
O12 U1 1_555 1_555
O13 C14 1_555 1_555
O14 U2 1_555 1_555
O15 U2 1_555 1_555
O16 Eu1 1_555 1_555
H1 O16 1_555 1_555
H2 O16 1_555 1_555
O17 Eu1 1_555 1_555
H3 O17 1_555 1_555
H4 O17 1_555 1_555
O18 Eu1 1_555 1_555
H5 O18 1_555 1_555
H6 O18 1_555 1_555
O19 Eu1 1_555 1_555
H7 O19 1_555 1_555
H8 O19 1_555 1_555
O20 Eu1 1_555 1_555
H9 O20 1_555 1_555
H10 O20 1_555 1_555
C1 C2 1_555 1_555
C2 H11 1_555 1_555
C3 C2 1_555 1_555
C4 C3 1_555 1_555
C5 C4 1_555 1_555
H12 C5 1_555 1_555
C6 C1 1_555 1_555
C7 H13 1_555 1_555
C8 C7 1_555 1_555
C9 C8 1_555 1_555
C10 O4 1_555 1_555
C11 C3 1_555 1_555
C12 C4 1_555 1_555
C13 O7 1_555 1_555
C14 O12 1_555 1_555
C15 O14 1_555 1_555
O12A C14A 1_555 1_555
O13A C14A 1_555 1_555
O14A C15A 1_555 1_555
O15A C15A 1_555 1_555
C7A C9 1_555 1_555
H13A C7A 1_555 1_555
C8A C7A 1_555 1_555
C9A C7 1_555 1_555
C14A C9A 1_555 1_555
C15A C8A 1_555 1_555
U1A O12A 1_555 1_555
Eu1A O6A 1_555 1_555
O1A U1A 1_555 1_555
O2A U1A 1_555 1_555
O4A U1A 1_555 1_555
O5A U1A 1_555 1_555
O6A C13A 1_555 1_555
O7A C13A 1_555 1_555
O8A C12A 1_555 1_555
O9A C12A 1_555 1_555
O10A C11A 1_555 1_555
O11A C11A 1_555 1_555
O16A Eu1A 1_555 1_555
H1A O16A 1_555 1_555
H2A O16A 1_555 1_555
O17A Eu1A 1_555 1_555
H3A O17A 1_555 1_555
H4A O17A 1_555 1_555
O18A Eu1A 1_555 1_555
H5A O18A 1_555 1_555
H6A O18A 1_555 1_555
O19A Eu1A 1_555 1_555
H7A O19A 1_555 1_555
H8A O19A 1_555 1_555
O20A Eu1A 1_555 1_555
H9A O20A 1_555 1_555
H10A O20A 1_555 1_555
C1A C2A 1_555 1_555
C2A H11A 1_555 1_555
C3A C2A 1_555 1_555
C4A C3A 1_555 1_555
C5A C4A 1_555 1_555
H12A C5A 1_555 1_555
C6A C1A 1_555 1_555
C10A O4A 1_555 1_555
C11A C3A 1_555 1_555
C12A C4A 1_555 1_555
C13A C6A 1_555 1_555
O3A U2 1_555 1_555
U1_2 O11A 1_555 1_555
U1_3 O8 1_555 1_555
U1A_2 O8A 1_555 1_555
U1A_3 O11 1_555 1_555
U2_2 O14A 1_555 1_555
Eu1_2 O9 1_555 1_555
Eu1A_2 O9A 1_555 1_555
O7A_2 U2 1_555 1_555
O8_2 U1 1_555 1_555
O8A_2 U1A 1_555 1_555
O9_2 Eu1 1_555 1_555
O9A_2 Eu1A 1_555 1_555
O10_2 Eu1 1_555 1_555
O10A_2 Eu1A 1_555 1_555
O11_2 U1A 1_555 1_555
O11A_2 U1 1_555 1_555
O14A_2 U2 1_555 1_555
O15A_2 U2 1_555 1_555
O5 C10 1_555 1_555
O10 Eu1_2 1_555 1_555
O15 C15 1_555 1_555
C1 C10 1_555 1_555
C5 C6 1_555 1_555
C6 C13 1_555 1_555
C8 C15 1_555 1_555
C9 C14 1_555 1_555
O15A U2_2 1_555 1_555
C8A C9A 1_555 1_555
O5A C10A 1_555 1_555
O7A U2_2 1_555 1_555
O10A Eu1A_2 1_555 1_555
C1A C10A 1_555 1_555
C5A C6A 1_555 1_555

#END
