
#######################################################################
#
#                 Cambridge Crystallographic Data Centre
#                                CCDC 
#
#######################################################################
#
# If this CIF has been generated from an entry in the Cambridge 
# Structural Database, then it will include bibliographic, chemical, 
# crystal, experimental, refinement or atomic coordinate data resulting 
# from the CCDC's data processing and validation procedures.
#
#######################################################################

data_MEYLIN
_chemical_formula_moiety         '(C9 H18 Cu2 N5 1+)n'
_symmetry_cell_setting           orthorhombic
_symmetry_space_group_name_H-M   'P b c a'
_symmetry_Int_Tables_number      61
_space_group_name_Hall           '-P 2ac 2ab'
loop_
_symmetry_equiv_pos_site_id
_symmetry_equiv_pos_as_xyz
1 x,y,z
2 1/2-x,-y,1/2+z
3 -x,1/2+y,1/2-z
4 1/2+x,1/2-y,-z
5 -x,-y,-z
6 1/2+x,y,1/2-z
7 x,1/2-y,1/2+z
8 1/2-x,1/2+y,z
_cell_length_a                   7.6458(5)
_cell_length_b                   13.5219(8)
_cell_length_c                   16.3845(10)
_cell_angle_alpha                90
_cell_angle_beta                 90
_cell_angle_gamma                90
_cell_volume                     1693.92
loop_
_atom_site_label
_atom_site_type_symbol
_atom_site_fract_x
_atom_site_fract_y
_atom_site_fract_z
_atom_site_U_iso_or_equiv
_atom_site_thermal_displace_type
Cu1 Cu 0.12656(3) 0.785221(16) 0.098836(13) 0.0164 Uani
N1 N -0.0397(2) 0.78238(10) 0.00533(9) 0.0165 Uani
C1 C -0.1311(2) 0.78622(12) -0.05031(11) 0.0180 Uani
N2 N 0.1811(2) 0.92266(12) 0.12754(10) 0.0198 Uani
C2 C 0.2055(2) 1.00484(12) 0.14329(10) 0.0150 Uani
Cu2 Cu -0.19811(3) 0.649273(15) 0.341006(12) 0.0143 Uani
N3 N -0.04620(19) 0.68322(12) 0.24806(9) 0.0182 Uani
C3 C 0.0457(2) 0.70325(12) 0.19483(11) 0.0169 Uani
Cu1C Cu -0.37344(3) 0.714779(16) -0.098836(13) 0.0164 Uani
C1C C 0.3689(2) 0.71378(12) 0.05031(11) 0.0180 Uani
C1F C -0.1311(2) 0.71378(12) 0.44969(11) 0.0180 Uani
C2B C -0.2055(2) 0.50484(12) 0.35671(10) 0.0150 Uani
Cu2B Cu 0.19811(3) 1.149273(15) 0.158994(12) 0.0143 Uani
Cu2E Cu 0.30189(3) 0.649273(15) 0.158994(12) 0.0143 Uani
Cu2F Cu -0.19811(3) 0.850727(15) -0.158994(12) 0.0143 Uani
C3E C -0.4543(2) 0.70325(12) 0.30517(11) 0.0169 Uani
C4 C 0.7384(2) -0.05769(16) 0.59814(12) 0.0230 Uani
H1 H 0.6458 -0.0248 0.5693 0.0350 Uiso
H2 H 0.6988 -0.0753 0.6518 0.0350 Uiso
H3 H 0.7717 -0.1164 0.5690 0.0350 Uiso
C5 C 0.9598(2) 0.04285(11) 0.52315(9) 0.0135 Uani
H4 H 1.0470 0.0941 0.5307 0.0160 Uiso
H5 H 0.8644 0.0705 0.4915 0.0160 Uiso
C6 C 0.8488(3) 0.09944(16) 0.65516(12) 0.0255 Uani
H6 H 0.9525 0.1383 0.6634 0.0380 Uiso
H7 H 0.8034 0.0788 0.7071 0.0380 Uiso
H8 H 0.7626 0.1384 0.6273 0.0380 Uiso
N4 N 0.89255(19) 0.01006(11) 0.60480(8) 0.0145 Uani
H9 H 0.9799 -0.0233 0.6305 0.0170 Uiso
C4D C 1.2616(2) 0.05769(16) 0.40186(12) 0.0230 Uani
H1D H 1.3542 0.0248 0.4307 0.0350 Uiso
H2D H 1.3012 0.0753 0.3482 0.0350 Uiso
H3D H 1.2283 0.1164 0.4310 0.0350 Uiso
C5D C 1.0402(2) -0.04285(11) 0.47685(9) 0.0135 Uani
H4D H 0.9530 -0.0941 0.4693 0.0160 Uiso
H5D H 1.1356 -0.0705 0.5085 0.0160 Uiso
C6D C 1.1512(3) -0.09944(16) 0.34484(12) 0.0255 Uani
H6D H 1.0475 -0.1383 0.3366 0.0380 Uiso
H7D H 1.1966 -0.0788 0.2929 0.0380 Uiso
H8D H 1.2374 -0.1384 0.3727 0.0380 Uiso
N4D N 1.10745(19) -0.01006(11) 0.39520(8) 0.0145 Uani
H9D H 1.0201 0.0233 0.3695 0.0170 Uiso
loop_
_atom_site_aniso_label
_atom_site_aniso_U_11
_atom_site_aniso_U_22
_atom_site_aniso_U_33
_atom_site_aniso_U_23
_atom_site_aniso_U_13
_atom_site_aniso_U_12
Cu1 0.01895(12) 0.01679(11) 0.01333(11) 0.00281(6) -0.00243(7) -0.00249(7)
N1 0.0173(6) 0.0146(6) 0.0177(6) -0.0006(5) -0.0008(5) -0.0002(5)
C1 0.0201 0.0177 0.0161 -0.0027 -0.0007 0.0073
N2 0.0202(6) 0.0200(7) 0.0193(7) 0.0019(5) 0.0018(5) 0.0005(5)
C2 0.0199(7) 0.0113(6) 0.0137(6) 0.0006(5) 0.0051(5) 0.0013(5)
Cu2 0.01455 0.01615 0.01234 0.00154 0.00157 0.00056
N3 0.0166 0.0209 0.017 0.0014 0.0018 0.0007
C3 0.0161 0.0174 0.0173 -0.0015 0.0014 -0.0021
Cu1C 0.01895 0.01679 0.01333 0.00281 0.00243 0.00249
C1C 0.0201 0.0177 0.0161 -0.0027 0.0007 -0.0073
C1F 0.0201 0.0177 0.0161 0.0027 -0.0007 -0.0073
C2B 0.0199 0.0113 0.0137 -0.0006 0.0051 -0.0013
Cu2B 0.01455 0.01615 0.01234 -0.00154 0.00157 -0.00056
Cu2E 0.01455 0.01615 0.01234 -0.00154 -0.00157 0.00056
Cu2F 0.01455 0.01615 0.01234 -0.00154 0.00157 -0.00056
C3E 0.0161 0.0174 0.0173 0.0015 -0.0014 -0.0021
C4 0.0165(7) 0.0280(9) 0.0246(8) 0.0029(7) 0.0026(6) -0.0054(7)
C5 0.0161(6) 0.0130(6) 0.0114(6) 0.0016(5) -0.0001(5) 0.0005(5)
C6 0.0341(10) 0.0262(9) 0.0162(8) -0.0055(6) 0.0028(7) 0.0032(8)
N4 0.0140(5) 0.0174(6) 0.0120(6) 0.0013(4) -0.0007(4) 0.0008(5)
C4D 0.0165 0.028 0.0246 0.0029 0.0026 -0.0054
C5D 0.0161 0.013 0.0114 0.0016 -0.0001 0.0005
C6D 0.0341 0.0262 0.0162 -0.0055 0.0028 0.0032
N4D 0.014 0.0174 0.012 0.0013 -0.0007 0.0008
loop_
_geom_bond_atom_site_label_1
_geom_bond_atom_site_label_2
_geom_bond_site_symmetry_1
_geom_bond_site_symmetry_2
Cu1 N1 1_555 1_555
N1 C1 1_555 1_555
C1 Cu1C 1_555 1_555
N2 Cu1 1_555 1_555
C2 N2 1_555 1_555
Cu2 N3 1_555 1_555
N3 C3 1_555 1_555
C3 Cu1 1_555 1_555
C4 H1 1_555 1_555
H2 C4 1_555 1_555
H3 C4 1_555 1_555
C5 H4 1_555 1_555
H5 C5 1_555 1_555
C6 H6 1_555 1_555
H7 C6 1_555 1_555
H8 C6 1_555 1_555
N4 C4 1_555 1_555
H9 N4 1_555 1_555
C1C Cu1 1_555 1_555
C1F Cu2 1_555 1_555
C2B Cu2 1_555 1_555
Cu2B C2 1_555 1_555
Cu2E C3 1_555 1_555
Cu2F C1 1_555 1_555
C3E Cu2 1_555 1_555
C4D H1D 1_555 1_555
H2D C4D 1_555 1_555
H3D C4D 1_555 1_555
C5D C5 1_555 1_555
H4D C5D 1_555 1_555
H5D C5D 1_555 1_555
C6D H6D 1_555 1_555
H7D C6D 1_555 1_555
H8D C6D 1_555 1_555
N4D C4D 1_555 1_555
H9D N4D 1_555 1_555
C5 N4 1_555 1_555
C6 N4 1_555 1_555
C1C Cu2E 1_555 1_555
C5D N4D 1_555 1_555
C6D N4D 1_555 1_555

#END
