
#######################################################################
#
#                 Cambridge Crystallographic Data Centre
#                                CCDC 
#
#######################################################################
#
# If this CIF has been generated from an entry in the Cambridge 
# Structural Database, then it will include bibliographic, chemical, 
# crystal, experimental, refinement or atomic coordinate data resulting 
# from the CCDC's data processing and validation procedures.
#
#######################################################################

data_PIJJEZ
_chemical_formula_moiety         '(C168 H72 Cd9 O48 6-)n'
_symmetry_cell_setting           rhombohedral
_symmetry_space_group_name_H-M   'R -3 c'
_symmetry_Int_Tables_number      167
_space_group_name_Hall           '-R 3 2"c'
loop_
_symmetry_equiv_pos_site_id
_symmetry_equiv_pos_as_xyz
1 x,y,z
2 -y,x-y,z
3 -x+y,-x,z
4 y,x,1/2-z
5 x-y,-y,1/2-z
6 -x,-x+y,1/2-z
7 2/3+x,1/3+y,1/3+z
8 2/3-y,1/3+x-y,1/3+z
9 2/3-x+y,1/3-x,1/3+z
10 2/3+y,1/3+x,5/6-z
11 2/3+x-y,1/3-y,5/6-z
12 2/3-x,1/3-x+y,5/6-z
13 1/3+x,2/3+y,2/3+z
14 1/3-y,2/3+x-y,2/3+z
15 1/3-x+y,2/3-x,2/3+z
16 1/3+y,2/3+x,1/6-z
17 1/3+x-y,2/3-y,1/6-z
18 1/3-x,2/3-x+y,1/6-z
19 -x,-y,-z
20 y,-x+y,-z
21 x-y,x,-z
22 -y,-x,1/2+z
23 -x+y,y,1/2+z
24 x,x-y,1/2+z
25 1/3-x,2/3-y,2/3-z
26 1/3+y,2/3-x+y,2/3-z
27 1/3+x-y,2/3+x,2/3-z
28 1/3-y,2/3-x,1/6+z
29 1/3-x+y,2/3+y,1/6+z
30 1/3+x,2/3+x-y,1/6+z
31 2/3-x,1/3-y,1/3-z
32 2/3+y,1/3-x+y,1/3-z
33 2/3+x-y,1/3+x,1/3-z
34 2/3-y,1/3-x,5/6+z
35 2/3-x+y,1/3+y,5/6+z
36 2/3+x,1/3+x-y,5/6+z
_cell_length_a                   26.5879(6)
_cell_length_b                   26.5879(6)
_cell_length_c                   67.331(4)
_cell_angle_alpha                90
_cell_angle_beta                 90
_cell_angle_gamma                120
_cell_volume                     41220.5
loop_
_atom_site_label
_atom_site_type_symbol
_atom_site_fract_x
_atom_site_fract_y
_atom_site_fract_z
_atom_site_U_iso_or_equiv
_atom_site_thermal_displace_type
Cd1 Cd 0.81427(2) 0.67095(2) 0.614262(8) 0.0525 Uani
O1 O 0.7482(2) 0.6441(3) 0.58810(8) 0.0650 Uani
O2 O 0.8310(2) 0.6488(3) 0.58233(9) 0.0921 Uani
C1 C 0.7821(3) 0.6388(3) 0.57691(12) 0.0574 Uani
C2 C 0.7944(2) 0.6064(3) 0.52235(9) 0.0386 Uani
C3 C 0.8077(3) 0.6238(3) 0.54210(10) 0.0487 Uani
H1 H 0.8455 0.6377 0.5466 0.0580 Uiso
C4 C 0.7099(3) 0.6011(3) 0.54897(10) 0.0456 Uani
H2 H 0.6816 0.5983 0.5577 0.0550 Uiso
C5 C 0.6965(3) 0.5850(3) 0.52916(10) 0.0442 Uani
H3 H 0.6589 0.5727 0.5248 0.0530 Uiso
C6 C 0.7657(3) 0.6210(3) 0.55533(11) 0.0497 Uani
C7 C 0.8367(3) 0.6043(3) 0.50927(11) 0.0454 Uani
C8 C 0.8202(3) 0.5813(3) 0.49034(9) 0.0434 Uani
C9 C 0.7213(3) 0.5677(3) 0.49536(8) 0.0356 Uani
C10 C 0.6660(3) 0.5512(3) 0.48792(9) 0.0420 Uani
H4 H 0.6389 0.5530 0.4962 0.0500 Uiso
C11 C 0.7370(3) 0.5864(3) 0.51563(9) 0.0369 Uani
C12 C 0.7623(3) 0.5638(3) 0.48244(9) 0.0437 Uani
C13 C 0.8585(3) 0.5715(3) 0.47858(11) 0.0493 Uani
H5 H 0.8477 0.5566 0.4658 0.0590 Uiso
C14 C 0.6505(3) 0.5320(3) 0.46818(9) 0.0501 Uani
C15 C 0.7454(3) 0.5454(4) 0.46269(11) 0.0700 Uani
H6 H 0.7718 0.5440 0.4540 0.0840 Uiso
C16 C 0.6909(3) 0.5296(5) 0.45614(11) 0.0732 Uani
H7 H 0.6808 0.5167 0.4431 0.0880 Uiso
C17 C 0.9125(3) 0.5840(3) 0.48607(10) 0.0451 Uani
C18 C 0.9299(3) 0.6100(3) 0.50445(11) 0.0539 Uani
H8 H 0.9666 0.6202 0.5093 0.0650 Uiso
C19 C 0.8933(3) 0.6206(3) 0.51559(12) 0.0548 Uani
H9 H 0.9062 0.6393 0.5278 0.0660 Uiso
Cd2 Cd 0.8333 0.6667 0.6667 0.0446 Uani
O3 O 0.7801(4) 0.5803(3) 0.62259(12) 0.1032 Uani
C20 C 0.7845(3) 0.5573(3) 0.63823(16) 0.0711 Uani
C21 C 0.9486(3) 0.5662(3) 0.47427(12) 0.0516 Uani
O4 O 0.8005(3) 0.5784(3) 0.65507(10) 0.0828 Uani
C22 C 0.5905(3) 0.5135(4) 0.46094(11) 0.0532 Uani
C23 C 0.7646(3) 0.4935(3) 0.63745(13) 0.0597 Uani
O5 O 0.5563(2) 0.5211(2) 0.47182(7) 0.0531 Uani
O6 O 0.99298(17) 0.56943(19) 0.48175(7) 0.0486 Uani
O7 O 0.9335(2) 0.5499(3) 0.45627(8) 0.0691 Uani
O8 O 0.5764(2) 0.4908(3) 0.44403(8) 0.0760 Uani
C24 C 0.6864(3) 0.3932(3) 0.63625(13) 0.0579 Uani
C25 C 0.7263(3) 0.3744(3) 0.63577(12) 0.0567 Uani
C26 C 0.7070(4) 0.4540(3) 0.63664(14) 0.0664 Uani
H10 H 0.6804 0.4670 0.6363 0.0800 Uiso
C27 C 0.7857(5) 0.4150(5) 0.6371(2) 0.1028 Uani
H11 H 0.8128 0.4026 0.6375 0.1230 Uiso
C28 C 0.8041(6) 0.4747(5) 0.6378(2) 0.1119 Uani
H12 H 0.8435 0.5017 0.6385 0.1340 Uiso
O3A O 0.4197(3) 0.1998(5) 0.62259(12) 0.1032 Uani
C20A C 0.4427(3) 0.2272(4) 0.63823(16) 0.0711 Uani
O4A O 0.4216(3) 0.2221(4) 0.65507(10) 0.0828 Uani
C23A C 0.5065(3) 0.2711(4) 0.63745(13) 0.0597 Uani
C24A C 0.6068(3) 0.2932(4) 0.63625(13) 0.0579 Uani
C25A C 0.6256(3) 0.3519(4) 0.63577(12) 0.0567 Uani
C26A C 0.5460(3) 0.2530(5) 0.63664(14) 0.0664 Uani
H10A H 0.5330 0.2134 0.6363 0.0800 Uiso
C27A C 0.5850(5) 0.3707(7) 0.6371(2) 0.1028 Uani
H11A H 0.5974 0.4102 0.6375 0.1230 Uiso
C28A C 0.5253(5) 0.3294(8) 0.6378(2) 0.1119 Uani
H12A H 0.4983 0.3418 0.6385 0.1340 Uiso
O3B O 0.8002(5) 0.2199(4) 0.62259(12) 0.1032 Uani
C20B C 0.7728(4) 0.2155(3) 0.63823(16) 0.0711 Uani
O4B O 0.7779(4) 0.1995(3) 0.65507(10) 0.0828 Uani
C23B C 0.7289(4) 0.2354(3) 0.63745(13) 0.0597 Uani
C24B C 0.7068(4) 0.3136(3) 0.63625(13) 0.0579 Uani
C25B C 0.6481(4) 0.2737(3) 0.63577(12) 0.0567 Uani
C26B C 0.7470(5) 0.2930(4) 0.63664(14) 0.0664 Uani
H10B H 0.7866 0.3196 0.6363 0.0800 Uiso
C27B C 0.6293(7) 0.2143(5) 0.6371(2) 0.1028 Uani
H11B H 0.5898 0.1872 0.6375 0.1230 Uiso
C28B C 0.6706(8) 0.1959(6) 0.6378(2) 0.1119 Uani
H12B H 0.6582 0.1565 0.6385 0.1340 Uiso
Cd1A Cd 0.32905(2) 0.14332(3) 0.614262(8) 0.0525 Uani
O1A O 0.3559(3) 0.1041(4) 0.58810(8) 0.0650 Uani
O2A O 0.3512(3) 0.1822(4) 0.58233(9) 0.0921 Uani
C1A C 0.3612(3) 0.1433(4) 0.57691(12) 0.0574 Uani
C2A C 0.3936(3) 0.1880(4) 0.52235(9) 0.0386 Uani
C3A C 0.3762(3) 0.1839(4) 0.54210(10) 0.0487 Uani
H1A H 0.3623 0.2078 0.5466 0.0580 Uiso
C4A C 0.3989(3) 0.1088(4) 0.54897(10) 0.0456 Uani
H2A H 0.4017 0.0833 0.5577 0.0550 Uiso
C5A C 0.4150(3) 0.1115(4) 0.52916(10) 0.0442 Uani
H3A H 0.4273 0.0862 0.5248 0.0530 Uiso
C6A C 0.3790(3) 0.1447(4) 0.55533(11) 0.0497 Uani
C7A C 0.3957(3) 0.2324(4) 0.50927(11) 0.0454 Uani
C8A C 0.4187(3) 0.2389(4) 0.49034(9) 0.0434 Uani
C9A C 0.4323(3) 0.1536(4) 0.49536(8) 0.0356 Uani
C10A C 0.4488(3) 0.1148(4) 0.48792(9) 0.0420 Uani
H4A H 0.4470 0.0859 0.4962 0.0500 Uiso
C11A C 0.4136(3) 0.1506(4) 0.51563(9) 0.0369 Uani
C12A C 0.4362(3) 0.1985(4) 0.48244(9) 0.0437 Uani
C13A C 0.4285(3) 0.2870(4) 0.47858(11) 0.0493 Uani
H5A H 0.4434 0.2911 0.4658 0.0590 Uiso
C14A C 0.4680(3) 0.1185(4) 0.46818(9) 0.0501 Uani
C15A C 0.4546(4) 0.2000(5) 0.46269(11) 0.0700 Uani
H6A H 0.4560 0.2278 0.4540 0.0840 Uiso
C16A C 0.4704(5) 0.1613(6) 0.45614(11) 0.0732 Uani
H7A H 0.4833 0.1641 0.4431 0.0880 Uiso
C17A C 0.4160(3) 0.3285(4) 0.48607(10) 0.0451 Uani
C18A C 0.3900(3) 0.3199(4) 0.50445(11) 0.0539 Uani
H8A H 0.3798 0.3464 0.5093 0.0650 Uiso
C19A C 0.3794(3) 0.2727(4) 0.51559(12) 0.0548 Uani
H9A H 0.3607 0.2669 0.5278 0.0660 Uiso
Cd2A Cd 0.3333 0.1666 0.6667 0.0446 Uani
C21A C 0.4338(3) 0.3824(4) 0.47427(12) 0.0516 Uani
C22A C 0.4865(4) 0.0770(5) 0.46094(11) 0.0532 Uani
O5A O 0.4789(2) 0.0352(3) 0.47182(7) 0.0531 Uani
O6A O 0.43057(19) 0.42355(25) 0.48175(7) 0.0486 Uani
O7A O 0.4501(3) 0.3836(4) 0.45627(8) 0.0691 Uani
O8A O 0.5092(3) 0.0856(4) 0.44403(8) 0.0760 Uani
Cd1B Cd 0.85668(3) 0.18573(2) 0.614262(8) 0.0525 Uani
O1B O 0.8959(4) 0.2518(2) 0.58810(8) 0.0650 Uani
O2B O 0.8178(4) 0.1690(2) 0.58233(9) 0.0921 Uani
C1B C 0.8567(4) 0.2179(3) 0.57691(12) 0.0574 Uani
C2B C 0.8120(4) 0.2056(2) 0.52235(9) 0.0386 Uani
C3B C 0.8161(4) 0.1923(3) 0.54210(10) 0.0487 Uani
H1B H 0.7922 0.1545 0.5466 0.0580 Uiso
C4B C 0.8912(4) 0.2901(3) 0.54897(10) 0.0456 Uani
H2B H 0.9167 0.3184 0.5577 0.0550 Uiso
C5B C 0.8885(4) 0.3035(3) 0.52916(10) 0.0442 Uani
H3B H 0.9138 0.3411 0.5248 0.0530 Uiso
C6B C 0.8553(4) 0.2343(3) 0.55533(11) 0.0497 Uani
C7B C 0.7676(4) 0.1633(3) 0.50927(11) 0.0454 Uani
C8B C 0.7611(4) 0.1798(3) 0.49034(9) 0.0434 Uani
C9B C 0.8464(4) 0.2787(3) 0.49536(8) 0.0356 Uani
C10B C 0.8852(4) 0.3340(3) 0.48792(9) 0.0420 Uani
H4B H 0.9141 0.3611 0.4962 0.0500 Uiso
C11B C 0.8494(4) 0.2630(3) 0.51563(9) 0.0369 Uani
C12B C 0.8015(4) 0.2377(3) 0.48244(9) 0.0437 Uani
C13B C 0.7130(4) 0.1415(3) 0.47858(11) 0.0493 Uani
H5B H 0.7089 0.1523 0.4658 0.0590 Uiso
C14B C 0.8815(4) 0.3495(3) 0.46818(9) 0.0501 Uani
C15B C 0.8000(5) 0.2546(3) 0.46269(11) 0.0700 Uani
H6B H 0.7722 0.2282 0.4540 0.0840 Uiso
C16B C 0.8387(6) 0.3091(3) 0.45614(11) 0.0732 Uani
H7B H 0.8359 0.3192 0.4431 0.0880 Uiso
C17B C 0.6715(4) 0.0875(3) 0.48607(10) 0.0451 Uani
C18B C 0.6801(4) 0.0701(3) 0.50445(11) 0.0539 Uani
H8B H 0.6536 0.0334 0.5093 0.0650 Uiso
C19B C 0.7273(4) 0.1067(3) 0.51559(12) 0.0548 Uani
H9B H 0.7331 0.0938 0.5278 0.0660 Uiso
Cd2B Cd 0.8334 0.1667 0.6667 0.0446 Uani
C21B C 0.6176(4) 0.0514(3) 0.47427(12) 0.0516 Uani
C22B C 0.9230(5) 0.4095(3) 0.46094(11) 0.0532 Uani
O5B O 0.9648(3) 0.4437(2) 0.47182(7) 0.0531 Uani
O6B O 0.57645(25) 0.00702(17) 0.48175(7) 0.0486 Uani
O7B O 0.6164(4) 0.0665(2) 0.45627(8) 0.0691 Uani
O8B O 0.9144(4) 0.4236(2) 0.44403(8) 0.0760 Uani
Cd1O Cd 1.00428(2) 0.48094(2) 0.552405(8) 0.0525 Uani
O1O O 0.9774(3) 0.4149(2) 0.57857(8) 0.0650 Uani
O2O O 0.9821(3) 0.4977(2) 0.58434(9) 0.0921 Uani
C1O C 0.9721(3) 0.4488(3) 0.58976(12) 0.0574 Uani
C2O C 0.9397(3) 0.4611(2) 0.64432(9) 0.0386 Uani
C3O C 0.9571(3) 0.4744(3) 0.62457(10) 0.0487 Uani
H1O H 0.9710 0.5122 0.6201 0.0580 Uiso
C4O C 0.9344(3) 0.3766(3) 0.61770(10) 0.0456 Uani
H2O H 0.9316 0.3483 0.6090 0.0550 Uiso
C5O C 0.9183(3) 0.3632(3) 0.63751(10) 0.0442 Uani
H3O H 0.9060 0.3256 0.6419 0.0530 Uiso
C6O C 0.9543(3) 0.4324(3) 0.61134(11) 0.0497 Uani
C7O C 0.9376(3) 0.5034(3) 0.65740(11) 0.0454 Uani
C8O C 0.9146(3) 0.4869(3) 0.67633(9) 0.0434 Uani
C9O C 0.9010(3) 0.3880(3) 0.67131(8) 0.0356 Uani
C10O C 0.8845(3) 0.3327(3) 0.67875(9) 0.0420 Uani
H4O H 0.8863 0.3056 0.6705 0.0500 Uiso
C11O C 0.9197(3) 0.4037(3) 0.65104(9) 0.0369 Uani
C12O C 0.8971(3) 0.4290(3) 0.68423(9) 0.0437 Uani
C13O C 0.9048(3) 0.5252(3) 0.68809(11) 0.0493 Uani
H5O H 0.8899 0.5144 0.7009 0.0590 Uiso
C14O C 0.8653(3) 0.3172(3) 0.69849(9) 0.0501 Uani
C15O C 0.8787(4) 0.4121(3) 0.70398(11) 0.0700 Uani
H6O H 0.8773 0.4385 0.7127 0.0840 Uiso
C16O C 0.8629(5) 0.3576(3) 0.71053(11) 0.0732 Uani
H7O H 0.8500 0.3475 0.7236 0.0880 Uiso
C17O C 0.9173(3) 0.5792(3) 0.68060(10) 0.0451 Uani
C18O C 0.9433(3) 0.5966(3) 0.66222(11) 0.0539 Uani
H8O H 0.9535 0.6333 0.6574 0.0650 Uiso
C19O C 0.9539(3) 0.5600(3) 0.65108(12) 0.0548 Uani
H9O H 0.9726 0.5729 0.6389 0.0660 Uiso
O3O O 0.9136(3) 0.4468(4) 0.54408(12) 0.1032 Uani
C20O C 0.8906(3) 0.4512(3) 0.52844(16) 0.0711 Uani
C21O C 0.8995(3) 0.6153(3) 0.69240(12) 0.0516 Uani
O4O O 0.9117(3) 0.4672(3) 0.51160(10) 0.0828 Uani
C22O C 0.8468(4) 0.2572(3) 0.70573(11) 0.0532 Uani
C23O C 0.8268(3) 0.4313(3) 0.52922(13) 0.0597 Uani
O5O O 0.8544(2) 0.2230(2) 0.69485(7) 0.0531 Uani
O6O O 0.90276(19) 0.65965(17) 0.68492(7) 0.0486 Uani
O7O O 0.8832(3) 0.6002(2) 0.71040(8) 0.0691 Uani
O8O O 0.8241(3) 0.2431(2) 0.72264(8) 0.0760 Uani
C24O C 0.7265(3) 0.3531(3) 0.53042(13) 0.0579 Uani
C25O C 0.7077(3) 0.3930(3) 0.53090(12) 0.0567 Uani
C26O C 0.7873(3) 0.3737(4) 0.53003(14) 0.0664 Uani
H10O H 0.8003 0.3471 0.5304 0.0800 Uiso
C27O C 0.7483(5) 0.4524(5) 0.5296(2) 0.1028 Uani
H11O H 0.7359 0.4795 0.5292 0.1230 Uiso
C28O C 0.8080(5) 0.4708(6) 0.5289(2) 0.1119 Uani
H12O H 0.8350 0.5102 0.5282 0.1340 Uiso
O3P O 0.5331(5) 0.0864(3) 0.54408(12) 0.1032 Uani
C20P C 0.5605(4) 0.1094(3) 0.52844(16) 0.0711 Uani
O4P O 0.5554(4) 0.0883(3) 0.51160(10) 0.0828 Uani
C23P C 0.6044(4) 0.1732(3) 0.52922(13) 0.0597 Uani
C24P C 0.6265(4) 0.2735(3) 0.53042(13) 0.0579 Uani
C25P C 0.6852(4) 0.2923(3) 0.53090(12) 0.0567 Uani
C26P C 0.5863(5) 0.2127(3) 0.53003(14) 0.0664 Uani
H10P H 0.5467 0.1997 0.5304 0.0800 Uiso
C27P C 0.7040(7) 0.2517(5) 0.5296(2) 0.1028 Uani
H11P H 0.7435 0.2641 0.5292 0.1230 Uiso
C28P C 0.6627(8) 0.1920(5) 0.5289(2) 0.1119 Uani
H12P H 0.6751 0.1650 0.5282 0.1340 Uiso
O3Q O 0.5532(4) 0.4669(5) 0.54408(12) 0.1032 Uani
C20Q C 0.5488(3) 0.4395(4) 0.52844(16) 0.0711 Uani
O4Q O 0.5328(3) 0.4446(4) 0.51160(10) 0.0828 Uani
C23Q C 0.5687(3) 0.3956(4) 0.52922(13) 0.0597 Uani
C24Q C 0.6469(3) 0.3735(4) 0.53042(13) 0.0579 Uani
C25Q C 0.6070(3) 0.3148(4) 0.53090(12) 0.0567 Uani
C26Q C 0.6263(4) 0.4137(5) 0.53003(14) 0.0664 Uani
H10Q H 0.6529 0.4533 0.5304 0.0800 Uiso
C27Q C 0.5476(5) 0.2960(7) 0.5296(2) 0.1028 Uani
H11Q H 0.5205 0.2565 0.5292 0.1230 Uiso
C28Q C 0.5292(6) 0.3373(8) 0.5289(2) 0.1119 Uani
H12Q H 0.4898 0.3249 0.5282 0.1340 Uiso
Cd1P Cd 0.47665(3) -0.00428(2) 0.552405(8) 0.0525 Uani
O1P O 0.4374(4) 0.0226(3) 0.57857(8) 0.0650 Uani
O2P O 0.5155(4) 0.0179(3) 0.58434(9) 0.0921 Uani
C1P C 0.4766(4) 0.0279(3) 0.58976(12) 0.0574 Uani
C2P C 0.5213(4) 0.0603(3) 0.64432(9) 0.0386 Uani
C3P C 0.5172(4) 0.0429(3) 0.62457(10) 0.0487 Uani
H1P H 0.5411 0.0290 0.6201 0.0580 Uiso
C4P C 0.4421(4) 0.0656(3) 0.61770(10) 0.0456 Uani
H2P H 0.4166 0.0684 0.6090 0.0550 Uiso
C5P C 0.4448(4) 0.0817(3) 0.63751(10) 0.0442 Uani
H3P H 0.4195 0.0940 0.6419 0.0530 Uiso
C6P C 0.4780(4) 0.0457(3) 0.61134(11) 0.0497 Uani
C7P C 0.5657(4) 0.0624(3) 0.65740(11) 0.0454 Uani
C8P C 0.5722(4) 0.0854(3) 0.67633(9) 0.0434 Uani
C9P C 0.4869(4) 0.0990(3) 0.67131(8) 0.0356 Uani
C10P C 0.4481(4) 0.1155(3) 0.67875(9) 0.0420 Uani
H4P H 0.4192 0.1137 0.6705 0.0500 Uiso
C11P C 0.4839(4) 0.0803(3) 0.65104(9) 0.0369 Uani
C12P C 0.5318(4) 0.1029(3) 0.68423(9) 0.0437 Uani
C13P C 0.6203(4) 0.0952(3) 0.68809(11) 0.0493 Uani
H5P H 0.6244 0.1101 0.7009 0.0590 Uiso
C14P C 0.4518(4) 0.1347(3) 0.69849(9) 0.0501 Uani
C15P C 0.5333(5) 0.1213(4) 0.70398(11) 0.0700 Uani
H6P H 0.5611 0.1227 0.7127 0.0840 Uiso
C16P C 0.4946(6) 0.1371(5) 0.71053(11) 0.0732 Uani
H7P H 0.4974 0.1500 0.7236 0.0880 Uiso
C17P C 0.6618(4) 0.0827(3) 0.68060(10) 0.0451 Uani
C18P C 0.6532(4) 0.0567(3) 0.66222(11) 0.0539 Uani
H8P H 0.6797 0.0465 0.6574 0.0650 Uiso
C19P C 0.6060(4) 0.0461(3) 0.65108(12) 0.0548 Uani
H9P H 0.6002 0.0274 0.6389 0.0660 Uiso
C21P C 0.7157(4) 0.1005(3) 0.69240(12) 0.0516 Uani
C22P C 0.4103(5) 0.1532(4) 0.70573(11) 0.0532 Uani
O5P O 0.3685(3) 0.1456(2) 0.69485(7) 0.0531 Uani
O6P O 0.75688(25) 0.09724(19) 0.68492(7) 0.0486 Uani
O7P O 0.7169(4) 0.1168(3) 0.71040(8) 0.0691 Uani
O8P O 0.4189(4) 0.1759(3) 0.72264(8) 0.0760 Uani
Cd1Q Cd 0.51906(2) 0.52335(3) 0.552405(8) 0.0525 Uani
O1Q O 0.5851(2) 0.5626(4) 0.57857(8) 0.0650 Uani
O2Q O 0.5023(2) 0.4845(4) 0.58434(9) 0.0921 Uani
C1Q C 0.5512(3) 0.5234(4) 0.58976(12) 0.0574 Uani
C2Q C 0.5389(2) 0.4787(4) 0.64432(9) 0.0386 Uani
C3Q C 0.5256(3) 0.4828(4) 0.62457(10) 0.0487 Uani
H1Q H 0.4878 0.4589 0.6201 0.0580 Uiso
C4Q C 0.6234(3) 0.5579(4) 0.61770(10) 0.0456 Uani
H2Q H 0.6517 0.5834 0.6090 0.0550 Uiso
C5Q C 0.6368(3) 0.5552(4) 0.63751(10) 0.0442 Uani
H3Q H 0.6744 0.5805 0.6419 0.0530 Uiso
C6Q C 0.5676(3) 0.5220(4) 0.61134(11) 0.0497 Uani
C7Q C 0.4966(3) 0.4343(4) 0.65740(11) 0.0454 Uani
C8Q C 0.5131(3) 0.4278(4) 0.67633(9) 0.0434 Uani
C9Q C 0.6120(3) 0.5131(4) 0.67131(8) 0.0356 Uani
C10Q C 0.6673(3) 0.5519(4) 0.67875(9) 0.0420 Uani
H4Q H 0.6944 0.5808 0.6705 0.0500 Uiso
C11Q C 0.5963(3) 0.5161(4) 0.65104(9) 0.0369 Uani
C12Q C 0.5710(3) 0.4682(4) 0.68423(9) 0.0437 Uani
C13Q C 0.4748(3) 0.3797(4) 0.68809(11) 0.0493 Uani
H5Q H 0.4856 0.3756 0.7009 0.0590 Uiso
C14Q C 0.6828(3) 0.5482(4) 0.69849(9) 0.0501 Uani
C15Q C 0.5879(3) 0.4667(5) 0.70398(11) 0.0700 Uani
H6Q H 0.5615 0.4389 0.7127 0.0840 Uiso
C16Q C 0.6424(3) 0.5054(6) 0.71053(11) 0.0732 Uani
H7Q H 0.6525 0.5026 0.7236 0.0880 Uiso
C17Q C 0.4208(3) 0.3382(4) 0.68060(10) 0.0451 Uani
C18Q C 0.4034(3) 0.3468(4) 0.66222(11) 0.0539 Uani
H8Q H 0.3667 0.3203 0.6574 0.0650 Uiso
C19Q C 0.4400(3) 0.3940(4) 0.65108(12) 0.0548 Uani
H9Q H 0.4271 0.3998 0.6389 0.0660 Uiso
C21Q C 0.3847(3) 0.2843(4) 0.69240(12) 0.0516 Uani
C22Q C 0.7428(3) 0.5897(5) 0.70573(11) 0.0532 Uani
O5Q O 0.7770(2) 0.6315(3) 0.69485(7) 0.0531 Uani
O6Q O 0.34035(17) 0.24312(25) 0.68492(7) 0.0486 Uani
O7Q O 0.3998(2) 0.2831(4) 0.71040(8) 0.0691 Uani
O8Q O 0.7569(2) 0.5811(4) 0.72264(8) 0.0760 Uani
Cd1DA Cd 0.85240(2) 0.66238(2) 0.719071(8) 0.0525 Uani
Cd1EA Cd 0.33762(2) 0.19001(3) 0.719071(8) 0.0525 Uani
Cd1FA Cd 0.80999(3) 0.14760(2) 0.719071(8) 0.0525 Uani
Cd1GA Cd 0.99572(2) 0.51906(2) 0.447595(8) 0.0525 Uani
Cd1HA Cd 0.52335(3) 0.00428(2) 0.447595(8) 0.0525 Uani
Cd1IA Cd 0.48094(2) 0.47665(3) 0.447595(8) 0.0525 Uani
Cd2O Cd 1.0000 0.5000 0.5000 0.0446 Uani
Cd2P Cd 0.4999 -0.0000 0.5000 0.0446 Uani
Cd2Q Cd 0.5000 0.5001 0.5000 0.0446 Uani
O4DA O 0.8662(3) 0.7549(3) 0.67826(10) 0.0828 Uani
O4EA O 0.2451(3) 0.1112(4) 0.67826(10) 0.0828 Uani
O4FA O 0.8888(4) 0.1338(3) 0.67826(10) 0.0828 Uani
O5R O 0.4437(2) 0.4789(2) 0.52818(7) 0.0531 Uani
O5S O 0.5211(2) -0.0352(3) 0.52818(7) 0.0531 Uani
O5T O 1.0352(3) 0.5563(2) 0.52818(7) 0.0531 Uani
O5AA O 0.8122(2) 0.1104(2) 0.63849(7) 0.0531 Uani
O5BA O 0.2981(3) 0.1878(2) 0.63849(7) 0.0531 Uani
O5CA O 0.8896(2) 0.7019(3) 0.63849(7) 0.0531 Uani
O6R O 1.00702(17) 0.43057(19) 0.51825(7) 0.0486 Uani
O6S O 0.56943(19) 0.57645(25) 0.51825(7) 0.0486 Uani
O6T O 0.42355(25) -0.00702(17) 0.51825(7) 0.0486 Uani
O6AA O 0.76390(19) 0.67369(17) 0.64842(7) 0.0486 Uani
O6BA O 0.90978(25) 0.23610(19) 0.64842(7) 0.0486 Uani
O6CA O 0.32631(17) 0.09022(25) 0.64842(7) 0.0486 Uani
O7R O 1.0665(2) 0.4501(3) 0.54373(8) 0.0691 Uani
O7S O 0.5499(3) 0.6164(4) 0.54373(8) 0.0691 Uani
O7T O 0.3836(4) -0.0665(2) 0.54373(8) 0.0691 Uani
O7AA O 0.7834(3) 0.7332(2) 0.62294(8) 0.0691 Uani
O7BA O 0.9497(4) 0.2166(3) 0.62294(8) 0.0691 Uani
O7CA O 0.2668(2) 0.0503(4) 0.62294(8) 0.0691 Uani
O8R O 0.4236(2) 0.5092(3) 0.55597(8) 0.0760 Uani
O8S O 0.4908(3) -0.0856(4) 0.55597(8) 0.0760 Uani
O8T O 1.0856(4) 0.5764(2) 0.55597(8) 0.0760 Uani
O8AA O 0.8425(3) 0.0903(2) 0.61070(8) 0.0760 Uani
O8BA O 0.2477(4) 0.1575(3) 0.61070(8) 0.0760 Uani
O8CA O 0.9097(2) 0.7523(4) 0.61070(8) 0.0760 Uani
loop_
_atom_site_aniso_label
_atom_site_aniso_U_11
_atom_site_aniso_U_22
_atom_site_aniso_U_33
_atom_site_aniso_U_23
_atom_site_aniso_U_13
_atom_site_aniso_U_12
Cd1 0.0519(3) 0.0434(3) 0.0561(3) -0.0288(2) -0.0184(2) 0.0193(2)
O1 0.053(3) 0.088(4) 0.051(3) -0.026(3) -0.005(2) 0.033(3)
O2 0.049(3) 0.154(6) 0.075(4) -0.062(4) -0.031(3) 0.052(4)
C1 0.050(4) 0.047(4) 0.067(5) -0.025(4) -0.003(4) 0.018(3)
C2 0.028(3) 0.042(3) 0.049(4) -0.009(3) -0.002(3) 0.020(3)
C3 0.031(3) 0.058(4) 0.050(4) -0.030(3) -0.010(3) 0.017(3)
C4 0.038(3) 0.060(4) 0.042(4) -0.022(3) -0.007(3) 0.027(3)
C5 0.028(3) 0.055(4) 0.054(4) -0.011(3) -0.008(3) 0.024(3)
C6 0.032(3) 0.050(4) 0.061(4) -0.023(3) -0.013(3) 0.016(3)
C7 0.026(3) 0.037(3) 0.067(4) -0.011(3) -0.002(3) 0.011(3)
C8 0.039(3) 0.060(4) 0.037(3) 0.002(3) -0.002(3) 0.029(3)
C9 0.038(3) 0.050(4) 0.024(3) 0.005(2) 0.001(2) 0.026(3)
C10 0.038(3) 0.054(4) 0.042(4) 0.007(3) -0.001(3) 0.029(3)
C11 0.037(3) 0.037(3) 0.040(3) -0.003(3) -0.001(3) 0.021(3)
C12 0.038(3) 0.070(4) 0.031(3) 0.003(3) 0.006(3) 0.033(3)
C13 0.034(3) 0.066(4) 0.048(4) 0.002(3) 0.006(3) 0.025(3)
C14 0.041(4) 0.086(5) 0.033(3) 0.001(3) -0.006(3) 0.039(4)
C15 0.052(4) 0.131(8) 0.038(4) 0.000(4) 0.009(3) 0.054(5)
C16 0.059(5) 0.140(8) 0.037(4) -0.009(5) -0.007(3) 0.062(6)
C17 0.028(3) 0.058(4) 0.046(4) 0.011(3) 0.015(3) 0.019(3)
C18 0.028(3) 0.069(5) 0.059(4) -0.014(4) -0.004(3) 0.020(3)
C19 0.035(3) 0.065(5) 0.063(5) -0.022(4) 0.001(3) 0.024(3)
Cd2 0.0469(4) 0.0260(3) 0.0499(4) -0.0091(3) 0.0003(3) 0.0099(3)
O3 0.134(5) 0.070(3) 0.099(4) -0.028(3) -0.019(3) 0.046(3)
C20 0.048(4) 0.034(4) 0.108(7) -0.049(5) -0.011(4) 0.003(3)
C21 0.030(3) 0.051(4) 0.072(5) 0.005(4) 0.023(3) 0.019(3)
O4 0.097(4) 0.054(3) 0.091(3) -0.007(3) -0.001(3) 0.033(3)
C22 0.053(4) 0.074(5) 0.045(4) 0.008(4) -0.003(3) 0.041(4)
C23 0.051(3) 0.044(3) 0.087(4) -0.012(3) -0.010(3) 0.026(3)
O5 0.044(3) 0.081(3) 0.046(3) 0.005(2) -0.005(2) 0.040(3)
O6 0.024(2) 0.046(3) 0.070(3) 0.010(2) 0.013(2) 0.0131(19)
O7 0.055(3) 0.114(5) 0.050(3) 0.013(3) 0.022(3) 0.051(3)
O8 0.066(3) 0.129(5) 0.052(3) -0.014(3) -0.014(3) 0.063(4)
C24 0.050(3) 0.047(3) 0.083(4) -0.007(3) -0.003(3) 0.029(3)
C25 0.045(3) 0.047(3) 0.082(4) -0.005(3) -0.011(3) 0.026(3)
C26 0.062(4) 0.052(3) 0.094(4) -0.012(3) 0.009(3) 0.035(3)
C27 0.088(5) 0.090(5) 0.147(6) -0.002(4) -0.014(4) 0.057(4)
C28 0.097(5) 0.097(5) 0.149(6) -0.003(4) -0.008(4) 0.054(4)
O3A 0.07 0.112 0.099 0.009 0.028 0.024
C20A 0.034 0.076 0.108 0.038 0.049 0.031
O4A 0.054 0.085 0.091 0.006 0.007 0.021
C23A 0.044 0.043 0.087 0.002 0.012 0.018
C24A 0.047 0.039 0.083 0.004 0.007 0.018
C25A 0.047 0.04 0.082 -0.006 0.005 0.021
C26A 0.052 0.044 0.094 0.021 0.012 0.017
C27A 0.09 0.064 0.147 -0.012 0.002 0.033
C28A 0.097 0.086 0.149 -0.005 0.003 0.043
O3B 0.112 0.134 0.099 0.019 -0.009 0.088
C20B 0.076 0.048 0.108 0.011 -0.038 0.045
O4B 0.085 0.097 0.091 0.001 -0.006 0.064
C23B 0.043 0.051 0.087 0.01 -0.002 0.025
C24B 0.039 0.05 0.083 0.003 -0.004 0.021
C25B 0.04 0.045 0.082 0.011 0.006 0.019
C26B 0.044 0.062 0.094 -0.009 -0.021 0.027
C27B 0.064 0.088 0.147 0.014 0.012 0.031
C28B 0.086 0.097 0.149 0.008 0.005 0.043
Cd1A 0.0434 0.0567 0.0561 0.0104 0.0288 0.0241
O1A 0.088 0.075 0.051 0.021 0.026 0.055
O2A 0.154 0.099 0.075 0.031 0.062 0.102
C1A 0.047 0.061 0.067 0.022 0.025 0.029
C2A 0.042 0.03 0.049 0.007 0.009 0.022
C3A 0.058 0.055 0.05 0.02 0.03 0.041
C4A 0.06 0.044 0.042 0.015 0.022 0.033
C5A 0.055 0.035 0.054 0.003 0.011 0.031
C6A 0.05 0.05 0.061 0.01 0.023 0.034
C7A 0.037 0.041 0.067 0.009 0.011 0.026
C8A 0.06 0.041 0.037 -0.004 -0.002 0.031
C9A 0.05 0.036 0.024 -0.004 -0.005 0.024
C10A 0.054 0.034 0.042 -0.008 -0.007 0.025
C11A 0.037 0.032 0.04 0.002 0.003 0.016
C12A 0.07 0.042 0.031 0.003 -0.003 0.037
C13A 0.066 0.05 0.048 0.004 -0.002 0.041
C14A 0.086 0.049 0.033 -0.007 -0.001 0.047
C15A 0.131 0.075 0.038 0.009 0 0.077
C16A 0.14 0.075 0.037 0.002 0.009 0.078
C17A 0.058 0.048 0.046 0.004 -0.011 0.039
C18A 0.069 0.057 0.059 0.01 0.014 0.049
C19A 0.065 0.052 0.063 0.023 0.022 0.041
Cd2A 0.026 0.0531 0.0499 0.0094 0.0091 0.0161
C21A 0.051 0.043 0.072 0.018 -0.005 0.032
C22A 0.074 0.045 0.045 -0.011 -0.008 0.033
O5A 0.081 0.045 0.046 -0.01 -0.005 0.041
O6A 0.046 0.0438 0.07 0.003 -0.01 0.0329
O7A 0.114 0.067 0.05 0.009 -0.013 0.063
O8A 0.129 0.069 0.052 2.62639e-18 0.014 0.066
Cd1B 0.0567 0.0519 0.0561 0.0184 -0.0104 0.0326
O1B 0.075 0.053 0.051 0.005 -0.021 0.02
O2B 0.099 0.049 0.075 0.031 -0.031 -0.003
C1B 0.061 0.05 0.067 0.003 -0.022 0.032
C2B 0.03 0.028 0.049 0.002 -0.007 0.008
C3B 0.055 0.031 0.05 0.01 -0.02 0.014
C4B 0.044 0.038 0.042 0.007 -0.015 0.011
C5B 0.035 0.028 0.054 0.008 -0.003 0.004
C6B 0.05 0.032 0.061 0.013 -0.01 0.016
C7B 0.041 0.026 0.067 0.002 -0.009 0.015
C8B 0.041 0.039 0.037 0.002 0.004 0.01
C9B 0.036 0.038 0.024 -0.001 0.004 0.012
C10B 0.034 0.038 0.042 0.001 0.008 0.009
C11B 0.032 0.037 0.04 0.001 -0.002 0.016
C12B 0.042 0.038 0.031 -0.006 -0.003 0.005
C13B 0.05 0.034 0.048 -0.006 -0.004 0.009
C14B 0.049 0.041 0.033 0.006 0.007 0.002
C15B 0.075 0.052 0.038 -0.009 -0.009 -0.002
C16B 0.075 0.059 0.037 0.007 -0.002 -0.003
C17B 0.048 0.028 0.046 -0.015 -0.004 0.009
C18B 0.057 0.028 0.059 0.004 -0.01 0.008
C19B 0.052 0.035 0.063 -0.001 -0.023 0.011
Cd2B 0.0531 0.0469 0.0499 -0.0003 -0.0094 0.037
C21B 0.043 0.03 0.072 -0.023 -0.018 0.011
C22B 0.045 0.053 0.045 0.003 0.011 0.012
O5B 0.045 0.044 0.046 0.005 0.01 0.004
O6B 0.0438 0.024 0.07 -0.013 -0.003 0.0109
O7B 0.067 0.055 0.05 -0.022 -0.009 0.004
O8B 0.069 0.066 0.052 0.014 -2.62639e-18 0.003
Cd1O 0.0434 0.0519 0.0561 0.0184 0.0288 0.0193
O1O 0.088 0.053 0.051 0.005 0.026 0.033
O2O 0.154 0.049 0.075 0.031 0.062 0.052
C1O 0.047 0.05 0.067 0.003 0.025 0.018
C2O 0.042 0.028 0.049 0.002 0.009 0.02
C3O 0.058 0.031 0.05 0.01 0.03 0.017
C4O 0.06 0.038 0.042 0.007 0.022 0.027
C5O 0.055 0.028 0.054 0.008 0.011 0.024
C6O 0.05 0.032 0.061 0.013 0.023 0.016
C7O 0.037 0.026 0.067 0.002 0.011 0.011
C8O 0.06 0.039 0.037 0.002 -0.002 0.029
C9O 0.05 0.038 0.024 -0.001 -0.005 0.026
C10O 0.054 0.038 0.042 0.001 -0.007 0.029
C11O 0.037 0.037 0.04 0.001 0.003 0.021
C12O 0.07 0.038 0.031 -0.006 -0.003 0.033
C13O 0.066 0.034 0.048 -0.006 -0.002 0.025
C14O 0.086 0.041 0.033 0.006 -0.001 0.039
C15O 0.131 0.052 0.038 -0.009 0 0.054
C16O 0.14 0.059 0.037 0.007 0.009 0.062
C17O 0.058 0.028 0.046 -0.015 -0.011 0.019
C18O 0.069 0.028 0.059 0.004 0.014 0.02
C19O 0.065 0.035 0.063 -0.001 0.022 0.024
O3O 0.07 0.134 0.099 0.019 0.028 0.046
C20O 0.034 0.048 0.108 0.011 0.049 0.003
C21O 0.051 0.03 0.072 -0.023 -0.005 0.019
O4O 0.054 0.097 0.091 0.001 0.007 0.033
C22O 0.074 0.053 0.045 0.003 -0.008 0.041
C23O 0.044 0.051 0.087 0.01 0.012 0.026
O5O 0.081 0.044 0.046 0.005 -0.005 0.04
O6O 0.046 0.024 0.07 -0.013 -0.01 0.0131
O7O 0.114 0.055 0.05 -0.022 -0.013 0.051
O8O 0.129 0.066 0.052 0.014 0.014 0.063
C24O 0.047 0.05 0.083 0.003 0.007 0.029
C25O 0.047 0.045 0.082 0.011 0.005 0.026
C26O 0.052 0.062 0.094 -0.009 0.012 0.035
C27O 0.09 0.088 0.147 0.014 0.002 0.057
C28O 0.097 0.097 0.149 0.008 0.003 0.054
O3P 0.112 0.07 0.099 -0.028 -0.009 0.024
C20P 0.076 0.034 0.108 -0.049 -0.038 0.031
O4P 0.085 0.054 0.091 -0.007 -0.006 0.021
C23P 0.043 0.044 0.087 -0.012 -0.002 0.018
C24P 0.039 0.047 0.083 -0.007 -0.004 0.018
C25P 0.04 0.047 0.082 -0.005 0.006 0.021
C26P 0.044 0.052 0.094 -0.012 -0.021 0.017
C27P 0.064 0.09 0.147 -0.002 0.012 0.033
C28P 0.086 0.097 0.149 -0.003 0.005 0.043
O3Q 0.134 0.112 0.099 0.009 -0.019 0.088
C20Q 0.048 0.076 0.108 0.038 -0.011 0.045
O4Q 0.097 0.085 0.091 0.006 -0.001 0.064
C23Q 0.051 0.043 0.087 0.002 -0.01 0.025
C24Q 0.05 0.039 0.083 0.004 -0.003 0.021
C25Q 0.045 0.04 0.082 -0.006 -0.011 0.019
C26Q 0.062 0.044 0.094 0.021 0.009 0.027
C27Q 0.088 0.064 0.147 -0.012 -0.014 0.031
C28Q 0.097 0.086 0.149 -0.005 -0.008 0.043
Cd1P 0.0567 0.0434 0.0561 -0.0288 -0.0104 0.0241
O1P 0.075 0.088 0.051 -0.026 -0.021 0.055
O2P 0.099 0.154 0.075 -0.062 -0.031 0.102
C1P 0.061 0.047 0.067 -0.025 -0.022 0.029
C2P 0.03 0.042 0.049 -0.009 -0.007 0.022
C3P 0.055 0.058 0.05 -0.03 -0.02 0.041
C4P 0.044 0.06 0.042 -0.022 -0.015 0.033
C5P 0.035 0.055 0.054 -0.011 -0.003 0.031
C6P 0.05 0.05 0.061 -0.023 -0.01 0.034
C7P 0.041 0.037 0.067 -0.011 -0.009 0.026
C8P 0.041 0.06 0.037 0.002 0.004 0.031
C9P 0.036 0.05 0.024 0.005 0.004 0.024
C10P 0.034 0.054 0.042 0.007 0.008 0.025
C11P 0.032 0.037 0.04 -0.003 -0.002 0.016
C12P 0.042 0.07 0.031 0.003 -0.003 0.037
C13P 0.05 0.066 0.048 0.002 -0.004 0.041
C14P 0.049 0.086 0.033 0.001 0.007 0.047
C15P 0.075 0.131 0.038 0 -0.009 0.077
C16P 0.075 0.14 0.037 -0.009 -0.002 0.078
C17P 0.048 0.058 0.046 0.011 -0.004 0.039
C18P 0.057 0.069 0.059 -0.014 -0.01 0.049
C19P 0.052 0.065 0.063 -0.022 -0.023 0.041
C21P 0.043 0.051 0.072 0.005 -0.018 0.032
C22P 0.045 0.074 0.045 0.008 0.011 0.033
O5P 0.045 0.081 0.046 0.005 0.01 0.041
O6P 0.0438 0.046 0.07 0.01 -0.003 0.0329
O7P 0.067 0.114 0.05 0.013 -0.009 0.063
O8P 0.069 0.129 0.052 -0.014 -2.62639e-18 0.066
Cd1Q 0.0519 0.0567 0.0561 0.0104 -0.0184 0.0326
O1Q 0.053 0.075 0.051 0.021 -0.005 0.02
O2Q 0.049 0.099 0.075 0.031 -0.031 -0.003
C1Q 0.05 0.061 0.067 0.022 -0.003 0.032
C2Q 0.028 0.03 0.049 0.007 -0.002 0.008
C3Q 0.031 0.055 0.05 0.02 -0.01 0.014
C4Q 0.038 0.044 0.042 0.015 -0.007 0.011
C5Q 0.028 0.035 0.054 0.003 -0.008 0.004
C6Q 0.032 0.05 0.061 0.01 -0.013 0.016
C7Q 0.026 0.041 0.067 0.009 -0.002 0.015
C8Q 0.039 0.041 0.037 -0.004 -0.002 0.01
C9Q 0.038 0.036 0.024 -0.004 0.001 0.012
C10Q 0.038 0.034 0.042 -0.008 -0.001 0.009
C11Q 0.037 0.032 0.04 0.002 -0.001 0.016
C12Q 0.038 0.042 0.031 0.003 0.006 0.005
C13Q 0.034 0.05 0.048 0.004 0.006 0.009
C14Q 0.041 0.049 0.033 -0.007 -0.006 0.002
C15Q 0.052 0.075 0.038 0.009 0.009 -0.002
C16Q 0.059 0.075 0.037 0.002 -0.007 -0.003
C17Q 0.028 0.048 0.046 0.004 0.015 0.009
C18Q 0.028 0.057 0.059 0.01 -0.004 0.008
C19Q 0.035 0.052 0.063 0.023 0.001 0.011
C21Q 0.03 0.043 0.072 0.018 0.023 0.011
C22Q 0.053 0.045 0.045 -0.011 -0.003 0.012
O5Q 0.044 0.045 0.046 -0.01 -0.005 0.004
O6Q 0.024 0.0438 0.07 0.003 0.013 0.0109
O7Q 0.055 0.067 0.05 0.009 0.022 0.004
O8Q 0.066 0.069 0.052 2.62639e-18 -0.014 0.003
Cd1DA 0.0519 0.0434 0.0561 -0.0288 -0.0184 0.0193
Cd1EA 0.0434 0.0567 0.0561 0.0104 0.0288 0.0241
Cd1FA 0.0567 0.0519 0.0561 0.0184 -0.0104 0.0326
Cd1GA 0.0434 0.0519 0.0561 0.0184 0.0288 0.0193
Cd1HA 0.0567 0.0434 0.0561 -0.0288 -0.0104 0.0241
Cd1IA 0.0519 0.0567 0.0561 0.0104 -0.0184 0.0326
Cd2O 0.026 0.0469 0.0499 -0.0003 0.0091 0.0099
Cd2P 0.0531 0.026 0.0499 -0.0091 -0.0094 0.0161
Cd2Q 0.0469 0.0531 0.0499 0.0094 0.0003 0.037
O4DA 0.097 0.054 0.091 -0.007 -0.001 0.033
O4EA 0.054 0.085 0.091 0.006 0.007 0.021
O4FA 0.085 0.097 0.091 0.001 -0.006 0.064
O5R 0.044 0.081 0.046 0.005 -0.005 0.04
O5S 0.081 0.045 0.046 -0.01 -0.005 0.041
O5T 0.045 0.044 0.046 0.005 0.01 0.004
O5AA 0.081 0.044 0.046 0.005 -0.005 0.04
O5BA 0.045 0.081 0.046 0.005 0.01 0.041
O5CA 0.044 0.045 0.046 -0.01 -0.005 0.004
O6R 0.024 0.046 0.07 0.01 0.013 0.0131
O6S 0.046 0.0438 0.07 0.003 -0.01 0.0329
O6T 0.0438 0.024 0.07 -0.013 -0.003 0.0109
O6AA 0.046 0.024 0.07 -0.013 -0.01 0.0131
O6BA 0.0438 0.046 0.07 0.01 -0.003 0.0329
O6CA 0.024 0.0438 0.07 0.003 0.013 0.0109
O7R 0.055 0.114 0.05 0.013 0.022 0.051
O7S 0.114 0.067 0.05 0.009 -0.013 0.063
O7T 0.067 0.055 0.05 -0.022 -0.009 0.004
O7AA 0.114 0.055 0.05 -0.022 -0.013 0.051
O7BA 0.067 0.114 0.05 0.013 -0.009 0.063
O7CA 0.055 0.067 0.05 0.009 0.022 0.004
O8R 0.066 0.129 0.052 -0.014 -0.014 0.063
O8S 0.129 0.069 0.052 2.62639e-18 0.014 0.066
O8T 0.069 0.066 0.052 0.014 -2.62639e-18 0.003
O8AA 0.129 0.066 0.052 0.014 0.014 0.063
O8BA 0.069 0.129 0.052 -0.014 -2.62639e-18 0.066
O8CA 0.066 0.069 0.052 2.62639e-18 -0.014 0.003
loop_
_geom_bond_atom_site_label_1
_geom_bond_atom_site_label_2
_geom_bond_site_symmetry_1
_geom_bond_site_symmetry_2
Cd1 O1 1_555 1_555
O1 C1 1_555 1_555
O2 Cd1 1_555 1_555
C1 O2 1_555 1_555
C2 C3 1_555 1_555
C3 H1 1_555 1_555
C4 H2 1_555 1_555
C5 C4 1_555 1_555
H3 C5 1_555 1_555
C6 C1 1_555 1_555
C7 C2 1_555 1_555
C8 C7 1_555 1_555
C9 C10 1_555 1_555
C10 H4 1_555 1_555
C11 C2 1_555 1_555
C12 C8 1_555 1_555
C13 C8 1_555 1_555
H5 C13 1_555 1_555
C14 C10 1_555 1_555
C15 C12 1_555 1_555
H6 C15 1_555 1_555
C16 C14 1_555 1_555
H7 C16 1_555 1_555
C17 C13 1_555 1_555
C18 C17 1_555 1_555
H8 C18 1_555 1_555
C19 C7 1_555 1_555
H9 C19 1_555 1_555
Cd2 O4 1_555 1_555
O3 Cd1 1_555 1_555
C20 O3 1_555 1_555
C21 C17 1_555 1_555
O4 C20 1_555 1_555
C22 C14 1_555 1_555
C23 C20 1_555 1_555
O5 C22 1_555 1_555
O6 C21 1_555 1_555
O7 C21 1_555 1_555
O8 C22 1_555 1_555
C24 C25 1_555 1_555
C25 C27 1_555 1_555
C26 C23 1_555 1_555
H10 C26 1_555 1_555
C27 H11 1_555 1_555
C28 C23 1_555 1_555
H12 C28 1_555 1_555
O3A C20A 1_555 1_555
C20A O4A 1_555 1_555
O4A Cd2A 1_555 1_555
C23A C20A 1_555 1_555
C24A C25A 1_555 1_555
C25A C24 1_555 1_555
C26A C23A 1_555 1_555
H10A C26A 1_555 1_555
C27A C25A 1_555 1_555
H11A C27A 1_555 1_555
C28A C23A 1_555 1_555
H12A C28A 1_555 1_555
O3B C20B 1_555 1_555
C20B O4B 1_555 1_555
O4B Cd2B 1_555 1_555
C23B C20B 1_555 1_555
C24B C25 1_555 1_555
C25B C24A 1_555 1_555
C26B C23B 1_555 1_555
H10B C26B 1_555 1_555
C27B C25B 1_555 1_555
H11B C27B 1_555 1_555
C28B C23B 1_555 1_555
H12B C28B 1_555 1_555
Cd1A O3A 1_555 1_555
O1A Cd1A 1_555 1_555
O2A Cd1A 1_555 1_555
C1A O1A 1_555 1_555
C2A C3A 1_555 1_555
C3A H1A 1_555 1_555
C4A H2A 1_555 1_555
C5A C4A 1_555 1_555
H3A C5A 1_555 1_555
C6A C1A 1_555 1_555
C7A C2A 1_555 1_555
C8A C7A 1_555 1_555
C9A C10A 1_555 1_555
C10A H4A 1_555 1_555
C11A C2A 1_555 1_555
C12A C8A 1_555 1_555
C13A C8A 1_555 1_555
H5A C13A 1_555 1_555
C14A C10A 1_555 1_555
C15A C12A 1_555 1_555
H6A C15A 1_555 1_555
C16A C14A 1_555 1_555
H7A C16A 1_555 1_555
C17A C13A 1_555 1_555
C18A C17A 1_555 1_555
H8A C18A 1_555 1_555
C19A C7A 1_555 1_555
H9A C19A 1_555 1_555
Cd2A O5P 1_555 1_555
C21A C17A 1_555 1_555
C22A C14A 1_555 1_555
O5A C22A 1_555 1_555
O6A C21A 1_555 1_555
O7A C21A 1_555 1_555
O8A C22A 1_555 1_555
Cd1B O3B 1_555 1_555
O1B Cd1B 1_555 1_555
O2B Cd1B 1_555 1_555
C1B O1B 1_555 1_555
C2B C3B 1_555 1_555
C3B H1B 1_555 1_555
C4B H2B 1_555 1_555
C5B C4B 1_555 1_555
H3B C5B 1_555 1_555
C6B C1B 1_555 1_555
C7B C2B 1_555 1_555
C8B C7B 1_555 1_555
C9B C10B 1_555 1_555
C10B H4B 1_555 1_555
C11B C2B 1_555 1_555
C12B C8B 1_555 1_555
C13B C8B 1_555 1_555
H5B C13B 1_555 1_555
C14B C10B 1_555 1_555
C15B C12B 1_555 1_555
H6B C15B 1_555 1_555
C16B C14B 1_555 1_555
H7B C16B 1_555 1_555
C17B C13B 1_555 1_555
C18B C17B 1_555 1_555
H8B C18B 1_555 1_555
C19B C7B 1_555 1_555
H9B C19B 1_555 1_555
Cd2B O5O 1_555 1_555
C21B C17B 1_555 1_555
C22B C14B 1_555 1_555
O5B C22B 1_555 1_555
O6B C21B 1_555 1_555
O7B C21B 1_555 1_555
O8B C22B 1_555 1_555
Cd1O O1O 1_555 1_555
O1O C1O 1_555 1_555
O2O Cd1O 1_555 1_555
C1O O2O 1_555 1_555
C2O C3O 1_555 1_555
C3O H1O 1_555 1_555
C4O H2O 1_555 1_555
C5O C4O 1_555 1_555
H3O C5O 1_555 1_555
C6O C1O 1_555 1_555
C7O C2O 1_555 1_555
C8O C7O 1_555 1_555
C9O C10O 1_555 1_555
C10O H4O 1_555 1_555
C11O C2O 1_555 1_555
C12O C8O 1_555 1_555
C13O C8O 1_555 1_555
H5O C13O 1_555 1_555
C14O C10O 1_555 1_555
C15O C12O 1_555 1_555
H6O C15O 1_555 1_555
C16O C14O 1_555 1_555
H7O C16O 1_555 1_555
C17O C13O 1_555 1_555
C18O C17O 1_555 1_555
H8O C18O 1_555 1_555
C19O C7O 1_555 1_555
H9O C19O 1_555 1_555
O3O Cd1O 1_555 1_555
C20O O3O 1_555 1_555
C21O C17O 1_555 1_555
O4O C20O 1_555 1_555
C22O C14O 1_555 1_555
C23O C20O 1_555 1_555
O5O C22O 1_555 1_555
O6O Cd2 1_555 1_555
O7O C21O 1_555 1_555
O8O C22O 1_555 1_555
C24O C25O 1_555 1_555
C25O C27O 1_555 1_555
C26O C23O 1_555 1_555
H10O C26O 1_555 1_555
C27O H11O 1_555 1_555
C28O C23O 1_555 1_555
H12O C28O 1_555 1_555
O3P C20P 1_555 1_555
C20P O4P 1_555 1_555
O4P Cd2P 1_555 1_555
C23P C20P 1_555 1_555
C24P C25P 1_555 1_555
C25P C24O 1_555 1_555
C26P C23P 1_555 1_555
H10P C26P 1_555 1_555
C27P C25P 1_555 1_555
H11P C27P 1_555 1_555
C28P C23P 1_555 1_555
H12P C28P 1_555 1_555
O3Q C20Q 1_555 1_555
C20Q O4Q 1_555 1_555
O4Q Cd2Q 1_555 1_555
C23Q C20Q 1_555 1_555
C24Q C25O 1_555 1_555
C25Q C24P 1_555 1_555
C26Q C23Q 1_555 1_555
H10Q C26Q 1_555 1_555
C27Q C25Q 1_555 1_555
H11Q C27Q 1_555 1_555
C28Q C23Q 1_555 1_555
H12Q C28Q 1_555 1_555
Cd1P O3P 1_555 1_555
O1P Cd1P 1_555 1_555
O2P Cd1P 1_555 1_555
C1P O1P 1_555 1_555
C2P C3P 1_555 1_555
C3P H1P 1_555 1_555
C4P H2P 1_555 1_555
C5P C4P 1_555 1_555
H3P C5P 1_555 1_555
C6P C1P 1_555 1_555
C7P C2P 1_555 1_555
C8P C7P 1_555 1_555
C9P C10P 1_555 1_555
C10P H4P 1_555 1_555
C11P C2P 1_555 1_555
C12P C8P 1_555 1_555
C13P C8P 1_555 1_555
H5P C13P 1_555 1_555
C14P C10P 1_555 1_555
C15P C12P 1_555 1_555
H6P C15P 1_555 1_555
C16P C14P 1_555 1_555
H7P C16P 1_555 1_555
C17P C13P 1_555 1_555
C18P C17P 1_555 1_555
H8P C18P 1_555 1_555
C19P C7P 1_555 1_555
H9P C19P 1_555 1_555
C21P C17P 1_555 1_555
C22P C14P 1_555 1_555
O5P C22P 1_555 1_555
O6P Cd2B 1_555 1_555
O7P C21P 1_555 1_555
O8P C22P 1_555 1_555
Cd1Q O3Q 1_555 1_555
O1Q Cd1Q 1_555 1_555
O2Q Cd1Q 1_555 1_555
C1Q O1Q 1_555 1_555
C2Q C3Q 1_555 1_555
C3Q H1Q 1_555 1_555
C4Q H2Q 1_555 1_555
C5Q C4Q 1_555 1_555
H3Q C5Q 1_555 1_555
C6Q C1Q 1_555 1_555
C7Q C2Q 1_555 1_555
C8Q C7Q 1_555 1_555
C9Q C10Q 1_555 1_555
C10Q H4Q 1_555 1_555
C11Q C2Q 1_555 1_555
C12Q C8Q 1_555 1_555
C13Q C8Q 1_555 1_555
H5Q C13Q 1_555 1_555
C14Q C10Q 1_555 1_555
C15Q C12Q 1_555 1_555
H6Q C15Q 1_555 1_555
C16Q C14Q 1_555 1_555
H7Q C16Q 1_555 1_555
C17Q C13Q 1_555 1_555
C18Q C17Q 1_555 1_555
H8Q C18Q 1_555 1_555
C19Q C7Q 1_555 1_555
H9Q C19Q 1_555 1_555
C21Q C17Q 1_555 1_555
C22Q C14Q 1_555 1_555
O5Q Cd2 1_555 1_555
O6Q Cd2A 1_555 1_555
O7Q C21Q 1_555 1_555
O8Q C22Q 1_555 1_555
Cd1DA O6O 1_555 1_555
Cd1EA O5P 1_555 1_555
Cd1FA O5O 1_555 1_555
Cd1GA O6 1_555 1_555
Cd1HA O5A 1_555 1_555
Cd1IA O5 1_555 1_555
Cd2O O6 1_555 1_555
Cd2P O5A 1_555 1_555
Cd2Q O5 1_555 1_555
O4DA Cd2 1_555 1_555
O4EA Cd2A 1_555 1_555
O4FA Cd2B 1_555 1_555
O5R Cd1Q 1_555 1_555
O5S Cd1P 1_555 1_555
O5T Cd1O 1_555 1_555
O5AA Cd1B 1_555 1_555
O5BA Cd1A 1_555 1_555
O5CA Cd1 1_555 1_555
O6R Cd1O 1_555 1_555
O6S Cd1Q 1_555 1_555
O6T Cd1P 1_555 1_555
O6AA Cd1 1_555 1_555
O6BA Cd1B 1_555 1_555
O6CA Cd1A 1_555 1_555
O7R Cd1O 1_555 1_555
O7S Cd1Q 1_555 1_555
O7T Cd1P 1_555 1_555
O7AA Cd1 1_555 1_555
O7BA Cd1B 1_555 1_555
O7CA Cd1A 1_555 1_555
O8R Cd1Q 1_555 1_555
O8S Cd1P 1_555 1_555
O8T Cd1O 1_555 1_555
O8AA Cd1B 1_555 1_555
O8BA Cd1A 1_555 1_555
O8CA Cd1 1_555 1_555
C3 C6 1_555 1_555
C4 C6 1_555 1_555
C5 C11 1_555 1_555
C9 C11 1_555 1_555
C9 C12 1_555 1_555
C15 C16 1_555 1_555
C18 C19 1_555 1_555
Cd2 O5CA 1_555 1_555
Cd2 O6AA 1_555 1_555
O7 Cd1GA 1_555 1_555
O8 Cd1IA 1_555 1_555
C24 C26 1_555 1_555
C27 C28 1_555 1_555
C24A C26A 1_555 1_555
C27A C28A 1_555 1_555
C24B C25B 1_555 1_555
C24B C26B 1_555 1_555
C27B C28B 1_555 1_555
O2A C1A 1_555 1_555
C3A C6A 1_555 1_555
C4A C6A 1_555 1_555
C5A C11A 1_555 1_555
C9A C11A 1_555 1_555
C9A C12A 1_555 1_555
C15A C16A 1_555 1_555
C18A C19A 1_555 1_555
Cd2A O5BA 1_555 1_555
Cd2A O6CA 1_555 1_555
O6A Cd1IA 1_555 1_555
O6A Cd2Q 1_555 1_555
O7A Cd1IA 1_555 1_555
O8A Cd1HA 1_555 1_555
O2B C1B 1_555 1_555
C3B C6B 1_555 1_555
C4B C6B 1_555 1_555
C5B C11B 1_555 1_555
C9B C11B 1_555 1_555
C9B C12B 1_555 1_555
C15B C16B 1_555 1_555
C18B C19B 1_555 1_555
Cd2B O5AA 1_555 1_555
Cd2B O6BA 1_555 1_555
O5B Cd1GA 1_555 1_555
O5B Cd2O 1_555 1_555
O6B Cd1HA 1_555 1_555
O6B Cd2P 1_555 1_555
O7B Cd1HA 1_555 1_555
O8B Cd1GA 1_555 1_555
C3O C6O 1_555 1_555
C4O C6O 1_555 1_555
C5O C11O 1_555 1_555
C9O C11O 1_555 1_555
C9O C12O 1_555 1_555
C15O C16O 1_555 1_555
C18O C19O 1_555 1_555
C21O O6O 1_555 1_555
O4O Cd2O 1_555 1_555
O7O Cd1DA 1_555 1_555
O8O Cd1FA 1_555 1_555
C24O C26O 1_555 1_555
C27O C28O 1_555 1_555
C24P C26P 1_555 1_555
C27P C28P 1_555 1_555
C24Q C25Q 1_555 1_555
C24Q C26Q 1_555 1_555
C27Q C28Q 1_555 1_555
O2P C1P 1_555 1_555
C3P C6P 1_555 1_555
C4P C6P 1_555 1_555
C5P C11P 1_555 1_555
C9P C11P 1_555 1_555
C9P C12P 1_555 1_555
C15P C16P 1_555 1_555
C18P C19P 1_555 1_555
C21P O6P 1_555 1_555
O6P Cd1FA 1_555 1_555
O7P Cd1FA 1_555 1_555
O8P Cd1EA 1_555 1_555
O2Q C1Q 1_555 1_555
C3Q C6Q 1_555 1_555
C4Q C6Q 1_555 1_555
C5Q C11Q 1_555 1_555
C9Q C11Q 1_555 1_555
C9Q C12Q 1_555 1_555
C15Q C16Q 1_555 1_555
C18Q C19Q 1_555 1_555
C21Q O6Q 1_555 1_555
C22Q O5Q 1_555 1_555
O5Q Cd1DA 1_555 1_555
O6Q Cd1EA 1_555 1_555
O7Q Cd1EA 1_555 1_555
O8Q Cd1DA 1_555 1_555
Cd2O O5T 1_555 1_555
Cd2O O6R 1_555 1_555
Cd2P O5S 1_555 1_555
Cd2P O6T 1_555 1_555
Cd2Q O5R 1_555 1_555
Cd2Q O6S 1_555 1_555

#END
