
#######################################################################
#
#                 Cambridge Crystallographic Data Centre
#                                CCDC 
#
#######################################################################
#
# If this CIF has been generated from an entry in the Cambridge 
# Structural Database, then it will include bibliographic, chemical, 
# crystal, experimental, refinement or atomic coordinate data resulting 
# from the CCDC's data processing and validation procedures.
#
#######################################################################

data_GEVYEN
_chemical_formula_moiety         '(C38 H30 N4 O11 Zn2)n'
_symmetry_cell_setting           monoclinic
_symmetry_space_group_name_H-M   'P 21/c'
_symmetry_Int_Tables_number      14
_space_group_name_Hall           '-P 2ybc'
loop_
_symmetry_equiv_pos_site_id
_symmetry_equiv_pos_as_xyz
1 x,y,z
2 -x,1/2+y,1/2-z
3 -x,-y,-z
4 x,1/2-y,1/2+z
_cell_length_a                   7.6978(16)
_cell_length_b                   17.250(4)
_cell_length_c                   14.089(3)
_cell_angle_alpha                90
_cell_angle_beta                 93.102(3)
_cell_angle_gamma                90
_cell_volume                     1868.1
loop_
_atom_site_label
_atom_site_type_symbol
_atom_site_fract_x
_atom_site_fract_y
_atom_site_fract_z
Zn1 Zn 0.41149(5) 0.62629(2) 0.29507(3)
O1 O 0.3457(4) 0.76508(16) 0.7995(2)
O2 O 0.2867(4) 0.77715(18) 0.6456(2)
O3 O -0.0426(3) 0.39795(17) 0.6440(2)
O4 O -0.2419(3) 0.45461(16) 0.7286(2)
N1 N 0.5966(4) 0.60033(19) 0.2053(2)
N2 N 0.4994(4) 0.61632(17) 0.4353(2)
C1 C 0.6594(5) 0.6351(2) 0.4706(3)
H1 H 0.7471 0.6429 0.4288
C2 C 0.6980(5) 0.6433(3) 0.5669(3)
H2 H 0.8105 0.6559 0.5891
C3 C 0.5705(5) 0.6328(2) 0.6296(3)
H3 H 0.5951 0.6386 0.6946
C4 C 0.4045(5) 0.6133(2) 0.5952(3)
C5 C 0.3783(5) 0.6044(2) 0.4983(3)
H4 H 0.2684 0.5891 0.4750
C6 C 0.2542(5) 0.6025(2) 0.6557(3)
C7 C 0.2057(5) 0.6610(2) 0.7194(2)
C8 C 0.0666(5) 0.6486(2) 0.7755(3)
H5 H 0.0381 0.6861 0.8195
C9 C 0.7336(5) 0.6450(2) 0.1914(3)
H6 H 0.7442 0.6915 0.2246
C10 C 0.8608(6) 0.6257(2) 0.1305(3)
H7 H 0.9541 0.6590 0.1232
C11 C 0.8497(5) 0.5568(2) 0.0801(3)
C12 C 0.7041(5) 0.5111(2) 0.0920(3)
H8 H 0.6886 0.4652 0.0579
C13 C 0.5830(5) 0.5340(2) 0.1543(3)
H9 H 0.4869 0.5024 0.1618
C14 C 0.9904(5) 0.5338(2) 0.0195(3)
H10 H 1.0737 0.5712 0.0078
C15 C -0.0952(5) 0.4528(2) 0.6904(3)
C16 C 0.0122(5) 0.5246(2) 0.7041(2)
C17 C 0.1567(4) 0.5350(2) 0.6499(3)
H11 H 0.1883 0.4958 0.6089
C18 C -0.0308(5) 0.5816(2) 0.7673(3)
H12 H -0.1258 0.5748 0.8045
C19 C 0.2871(5) 0.7396(2) 0.7196(3)
N1B N 1.4034(4) 0.39967(19) -0.2053(2)
C9B C 1.2664(5) 0.3550(2) -0.1914(3)
H6B H 1.2558 0.3085 -0.2246
C10B C 1.1392(6) 0.3743(2) -0.1305(3)
H7B H 1.0459 0.3410 -0.1232
C11B C 1.1503(5) 0.4432(2) -0.0801(3)
C12B C 1.2959(5) 0.4889(2) -0.0920(3)
H8B H 1.3114 0.5348 -0.0579
C13B C 1.4170(5) 0.4660(2) -0.1543(3)
H9B H 1.5131 0.4976 -0.1618
C14B C 1.0096(5) 0.4662(2) -0.0195(3)
H10B H 0.9263 0.4288 -0.0078
Zn1B Zn -0.41149(5) 0.37371(2) 0.70493(3)
O1B O -0.3457(4) 0.23492(16) 0.2005(2)
O2B O -0.2867(4) 0.22285(18) 0.3544(2)
O3B O 0.0426(3) 0.60205(17) 0.3560(2)
O4B O 0.2419(3) 0.54539(16) 0.2714(2)
N2B N -0.4994(4) 0.38368(17) 0.5647(2)
C1B C -0.6594(5) 0.3649(2) 0.5294(3)
H1B H -0.7471 0.3571 0.5712
C2B C -0.6980(5) 0.3567(3) 0.4331(3)
H2B H -0.8105 0.3441 0.4109
C3B C -0.5705(5) 0.3672(2) 0.3704(3)
H3B H -0.5951 0.3614 0.3054
C4B C -0.4045(5) 0.3867(2) 0.4048(3)
C5B C -0.3783(5) 0.3956(2) 0.5017(3)
H4B H -0.2684 0.4109 0.5250
C6B C -0.2542(5) 0.3975(2) 0.3443(3)
C7B C -0.2057(5) 0.3390(2) 0.2806(2)
C8B C -0.0666(5) 0.3514(2) 0.2245(3)
H5B H -0.0381 0.3139 0.1805
C15B C 0.0952(5) 0.5472(2) 0.3096(3)
C16B C -0.0122(5) 0.4754(2) 0.2959(2)
C17B C -0.1567(4) 0.4650(2) 0.3501(3)
H11B H -0.1883 0.5042 0.3911
C18B C 0.0308(5) 0.4184(2) 0.2327(3)
H12B H 0.1258 0.4252 0.1955
C19B C -0.2871(5) 0.2604(2) 0.2804(3)
Zn1A Zn -0.41149(5) 0.12629(2) 0.20493(3)
Zn1B_2 Zn 1.58851(5) 0.37371(2) -0.29507(3)
Zn1C Zn 0.41149(5) 0.87371(2) 0.79507(3)
O1A O -0.3457(4) 0.26508(16) 0.7005(2)
O1C O 0.3457(4) 0.73492(16) 0.2995(2)
N1B_2 N -0.5966(4) 0.39967(19) 0.7947(2)
O5 O 0.7229(8) 0.6918(4) -0.1193(4)
H13 H 0.6326 0.6678 -0.1031
H14 H 0.8119 0.7123 -0.0913
O6 O 0.0357(6) 0.7363(2) 0.4799(3)
H15 H 0.1058 0.7480 0.5264
H16 H 0.0373 0.6971 0.4434
O7 O 0.4109(7) 0.6700(3) -0.0294(3)
H17 H 0.3546 0.6981 -0.0699
H18 H 0.3612 0.6791 0.0219
loop_
_geom_bond_atom_site_label_1
_geom_bond_atom_site_label_2
_geom_bond_site_symmetry_1
_geom_bond_site_symmetry_2
Zn1 N1 1_555 1_555
O1 C19 1_555 1_555
O2 C19 1_555 1_555
O3 C15 1_555 1_555
O4 C15 1_555 1_555
N1 C9 1_555 1_555
N2 Zn1 1_555 1_555
C1 N2 1_555 1_555
H1 C1 1_555 1_555
C2 C1 1_555 1_555
H2 C2 1_555 1_555
C3 C2 1_555 1_555
H3 C3 1_555 1_555
C4 C3 1_555 1_555
C5 N2 1_555 1_555
H4 C5 1_555 1_555
C6 C4 1_555 1_555
C7 C6 1_555 1_555
C8 C7 1_555 1_555
H5 C8 1_555 1_555
C9 H6 1_555 1_555
C10 C9 1_555 1_555
H7 C10 1_555 1_555
C11 C10 1_555 1_555
C12 C11 1_555 1_555
H8 C12 1_555 1_555
C13 N1 1_555 1_555
H9 C13 1_555 1_555
C14 C11 1_555 1_555
H10 C14 1_555 1_555
C15 C16 1_555 1_555
C16 C17 1_555 1_555
C17 C6 1_555 1_555
H11 C17 1_555 1_555
C18 C8 1_555 1_555
H12 C18 1_555 1_555
C19 C7 1_555 1_555
O5 H13 1_555 1_555
H14 O5 1_555 1_555
O6 H15 1_555 1_555
H16 O6 1_555 1_555
O7 H17 1_555 1_555
H18 O7 1_555 1_555
N1B C9B 1_555 1_555
C9B H6B 1_555 1_555
C10B C9B 1_555 1_555
H7B C10B 1_555 1_555
C11B C10B 1_555 1_555
C12B C11B 1_555 1_555
H8B C12B 1_555 1_555
C13B N1B 1_555 1_555
H9B C13B 1_555 1_555
C14B C14 1_555 1_555
H10B C14B 1_555 1_555
Zn1B O4 1_555 1_555
O1B C19B 1_555 1_555
O2B C19B 1_555 1_555
O3B C15B 1_555 1_555
O4B Zn1 1_555 1_555
N2B Zn1B 1_555 1_555
C1B N2B 1_555 1_555
H1B C1B 1_555 1_555
C2B C1B 1_555 1_555
H2B C2B 1_555 1_555
C3B C2B 1_555 1_555
H3B C3B 1_555 1_555
C4B C3B 1_555 1_555
C5B N2B 1_555 1_555
H4B C5B 1_555 1_555
C6B C4B 1_555 1_555
C7B C6B 1_555 1_555
C8B C7B 1_555 1_555
H5B C8B 1_555 1_555
C15B O4B 1_555 1_555
C16B C15B 1_555 1_555
C17B C6B 1_555 1_555
H11B C17B 1_555 1_555
C18B C8B 1_555 1_555
H12B C18B 1_555 1_555
C19B C7B 1_555 1_555
Zn1A O1B 1_555 1_555
Zn1B_2 N1B 1_555 1_555
Zn1C O1 1_555 1_555
O1A Zn1B 1_555 1_555
O1C Zn1 1_555 1_555
N1B_2 Zn1B 1_555 1_555
C4 C5 1_555 1_555
C12 C13 1_555 1_555
C16 C18 1_555 1_555
C11B C14B 1_555 1_555
C12B C13B 1_555 1_555
C4B C5B 1_555 1_555
C16B C17B 1_555 1_555
C16B C18B 1_555 1_555

#END
